   Input file: C:\Users\jt2020\OneDrive - Imperial College London\Data\Thermodynamics\Thermodynamics\Phreeq\Reaction Progress\All models with pyrrhotite\H2S\H2S fixed conditions S dominant.pqi
  Output file: C:\Users\jt2020\OneDrive - Imperial College London\Data\Thermodynamics\Thermodynamics\Phreeq\Reaction Progress\All models with pyrrhotite\H2S\H2S fixed conditions S dominant.pqo
Database file: C:\Users\jt2020\OneDrive - Imperial College London\Data\Thermodynamics\Thermodynamics\Phreeq\Reaction Progress\All models with pyrrhotite\Database\llnlpyrrminteq.dat

------------------
Reading data base.
------------------

	SOLUTION_MASTER_SPECIES
	SOLUTION_SPECIES
	SOLUTION_SPECIES
	PHASES
	SURFACE_MASTER_SPECIES
	SURFACE_SPECIES
	END
------------------------------------
Reading input data for simulation 1.
------------------------------------

	DATABASE C:\Users\jt2020\OneDrive - Imperial College London\Data\Thermodynamics\Thermodynamics\Phreeq\Reaction Progress\All models with pyrrhotite\Database\llnlpyrrminteq.dat
	TITLE  H2S fixed conditions S dominated 250mV
	SOLUTION 1  PURE WATER
	            pH    6 charge
	          temp   25.0
	           pe     -4.23       #-250 mV 
	PHASES
	       pH_fix
	                H + = H +
	                log_k = 0.0
	       pe_fix
	                e- = e-
	                log_k 0.0
	Mackinawite
	    FeS + 2H+ = Fe+2 + H2S
	    log_k     4.850
	    delta_h        -8.901 kcal
	Pyrrhotite
	    FeS + 2H+ = Fe+2 + H2S
	    log_k     3.74177
	    delta_h        -7.977 kcal
	Greigite
	    Fe3S4 + 8H+ = 2Fe+3 + Fe+2 + 4H2S
	    log_k     -13.17851821
	    delta_h        20.9195763 kcal
	Pyrite
	    FeS2 + 4H+ + Fe+2 = 2Fe+3 + 2H2S
	    log_k     -28.93469201
	    delta_h        20.7091683 kcal
	NaNO3
	    NaNO3 = Na+ + NO3-
	    log_K -20
	NaCl
	    NaCl = Cl- + Na+
	    log_k     -20
	END
-----
TITLE
-----

  H2S fixed conditions S dominated 250mV

-------------------------------------------
Beginning of initial solution calculations.
-------------------------------------------

Initial solution 1.	PURE WATER

-----------------------------Solution composition------------------------------

	Elements           Molality       Moles

	Pure water     

----------------------------Description of solution----------------------------

                                       pH  =   6.999      Charge balance
                                       pe  =  -4.230    
                        Activity of water  =   1.000
                 Ionic strength (mol/kgw)  =   1.003e-07
                       Mass of water (kg)  =   1.000e+00
                 Total alkalinity (eq/kg)  =   4.300e-16
                         Temperature (°C)  =  25.00
                  Electrical balance (eq)  =  -4.300e-16
 Percent error, 100*(Cat-|An|)/(Cat+|An|)  =  -0.00
                               Iterations  =   5
                                  Total H  = 1.110124e+02
                                  Total O  = 5.550622e+01

----------------------------Distribution of species----------------------------

                                               Log       Log       Log    mole V
   Species          Molality    Activity  Molality  Activity     Gamma    cm³/mol

   OH-             1.003e-07   1.002e-07    -6.999    -6.999    -0.000     (0)  
   H+              1.003e-07   1.002e-07    -6.999    -6.999    -0.000      0.00
   H2O             5.551e+01   1.000e+00     1.744    -0.000     0.000     18.07
H(0)          4.102e-09
   H2              2.051e-09   2.051e-09    -8.688    -8.688     0.000     (0)  
O(0)          0.000e+00
   O2              0.000e+00   0.000e+00   -75.004   -75.004     0.000     (0)  

------------------------------Saturation indices-------------------------------

  Phase               SI** log IAP   log K(298 K,   1 atm)

  O2(g)           -72.04     11.08   83.12  O2
  pe_fix            4.23      4.23    0.00  e-
  pH_fix           -7.00     -7.00    0.00  H+

**For a gas, SI = log10(fugacity). Fugacity = pressure * phi / 1 atm.
  For ideal gases, phi = 1.

------------------
End of simulation.
------------------

------------------------------------
Reading input data for simulation 2.
------------------------------------

	INCREMENTAL_REACTIONS
	REACTION
	Fe1S3 1
	10*1e-12 10*1e-11 10*1e-10 10*1e-9 10*1e-8 10*1e-7 10*1e-6 10*1e-5 10*1e-4  10*1e-3  10*1e-2 mol
	USE solution 1
	EQUILIBRIUM_PHASES 1
	        Mackinawite     0.0     0.0
	        Greigite        0.0     0.0
	        Pyrite          0.0     0.0 
	        Pyrrhotite      0.0     0.0
	        NaNO3           0.0     0.007
	        pH_fix          -6      HCl       10.0  
	        pe_fix          4.23    O2(g)     10
	USER_GRAPH 1 Simulation 6
	    -headings               Pyrite Greigite Mackinawite Pyrrhotite
	    -axis_titles            "Fe and S added, Log moles" "Mineral, moles"
	    -chart_title            "Sulfur dominant system with H2S as the oxidant. Fix both -250mV at pH 6"
	    -axis_scale sy_axis     auto auto auto auto log
	    -initial_solutions      false
	    -connect_simulations    false
	    -axis_scale y_axis      auto auto auto auto Log
	    -axis_scale sy_axis	    auto auto auto auto Log
	    -plot_concentration_vs  x
	  -start
	 5 PUT(GET(1) + RXN, 1)
	  20 PLOT_XY log10(GET(1)), EQUI("Pyrite") color = Green, line_w = 0,   	symbol = Plus, symbol_size = 5, y_axis = 2
	  30 PLOT_XY log10(GET(1)), EQUI("Greigite") color = Blue, line_w = 0,   	symbol = Plus, symbol_size = 5, y_axis = 2
	  40 PLOT_XY log10(GET(1)), EQUI("Mackinawite") color = Cyan, line_w = 0,   	symbol = Plus, symbol_size = 5, y_axis = 2
	  50 PLOT_XY log10(GET(1)), EQUI("Pyrrhotite") color = Red, line_w = 0,   	symbol = Plus, symbol_size = 5, y_axis = 2
	  -end
	    -active                 true
	SELECTED_OUTPUT
	    file                 H2S S dominated 250mV pH 6.csv
	    saturation_indices   Mackinawite  Greigite  Pyrite Pyrrhotite
	    reaction             
	    totals               Fe S
	    equilibrium_phases   Mackinawite  Greigite  Pyrite Pyrrhotite
	END
-----------------------------------------
Beginning of batch-reaction calculations.
-----------------------------------------

Reaction step 1.

Using solution 1.	PURE WATER
Using pure phase assemblage 1.	
Using reaction 1.	

Reaction 1.	

	  1.000e-12 moles of the following reaction have been added:

	                 Relative
	Reactant            moles

	Fe1S3                1.00000

	                 Relative
	Element             moles
	Fe                   1.00000
	S                    3.00000

-------------------------------Phase assemblage--------------------------------

                                                      Moles in assemblage
Phase               SI  log IAP  log K(T, P)   Initial       Final       Delta

Greigite        -56.23   -69.41    -13.18    0.000e+00           0   0.000e+00
Mackinawite     -16.62   -11.77      4.85    0.000e+00           0   0.000e+00
NaNO3           -77.33   -97.33    -20.00    7.000e-03           0  -7.000e-03
Pyrite          -16.93   -45.87    -28.93    0.000e+00           0   0.000e+00
Pyrrhotite      -15.51   -11.77      3.74    0.000e+00           0   0.000e+00
pH_fix           -6.00    -6.00      0.00
	 HCl                is reactant       1.000e+01   9.986e+00  -1.400e-02
pe_fix            4.23     4.23      0.00
	 O2                 is reactant       1.000e+01   1.001e+01   1.400e-02

-----------------------------Solution composition------------------------------

	Elements           Molality       Moles

	Cl                1.400e-02   1.400e-02
	Fe                1.000e-12   1.000e-12
	N                 7.001e-03   7.000e-03
	Na                7.001e-03   7.000e-03
	S                 3.000e-12   3.000e-12

----------------------------Description of solution----------------------------

                                       pH  =   6.000      Charge balance
                                       pe  =  -4.230      Adjusted to redox equilibrium
                        Activity of water  =   1.000
                 Ionic strength (mol/kgw)  =   1.400e-02
                       Mass of water (kg)  =   9.999e-01
                 Total alkalinity (eq/kg)  =   2.405e-06
                         Temperature (°C)  =  25.00
                  Electrical balance (eq)  =  -1.155e-10
 Percent error, 100*(Cat-|An|)/(Cat+|An|)  =  -0.00
                               Iterations  =  16
                                  Total H  = 1.110264e+02
                                  Total O  = 5.549922e+01

----------------------------Distribution of species----------------------------

                                               Log       Log       Log    mole V
   Species          Molality    Activity  Molality  Activity     Gamma    cm³/mol

   H+              1.108e-06   1.000e-06    -5.955    -6.000    -0.045      0.00
   OH-             1.135e-08   1.004e-08    -7.945    -7.998    -0.053     (0)  
   H2O             5.551e+01   9.995e-01     1.744    -0.000     0.000     18.07
Cl            1.400e-02
   Cl-             1.400e-02   1.237e-02    -1.854    -1.908    -0.054     (0)  
   FeCl+2          2.073e-30   1.302e-30   -29.683   -29.886    -0.202     (0)  
   FeCl2+          8.078e-32   7.191e-32   -31.093   -31.143    -0.051     (0)  
   FeCl3           8.864e-35   8.893e-35   -34.052   -34.051     0.001     (0)  
Fe(2)         1.000e-12
   Fe+2            9.999e-13   6.371e-13   -12.000   -12.196    -0.196     (0)  
   FeOH+           2.262e-16   2.014e-16   -15.645   -15.696    -0.051     (0)  
   Fe(OH)2         1.708e-21   1.713e-21   -20.768   -20.766     0.001     (0)  
   Fe(OH)3-        7.147e-26   6.362e-26   -25.146   -25.196    -0.051     (0)  
   Fe(HS)2         5.252e-29   5.269e-29   -28.280   -28.278     0.001     (0)  
   FeSO4           1.086e-36   1.089e-36   -35.964   -35.963     0.001     (0)  
   Fe(HS)3-        1.969e-39   1.748e-39   -38.706   -38.758    -0.052     (0)  
Fe(3)         8.474e-24
   Fe(OH)2+        8.350e-24   7.444e-24   -23.078   -23.128    -0.050     (0)  
   Fe(OH)3         8.714e-26   8.742e-26   -25.060   -25.058     0.001     (0)  
   FeOH+2          3.582e-26   2.249e-26   -25.446   -25.648    -0.202     (0)  
   Fe(OH)4-        9.801e-28   8.738e-28   -27.009   -27.059    -0.050     (0)  
   Fe+3            8.802e-30   3.485e-30   -29.055   -29.458    -0.402     (0)  
   FeCl+2          2.073e-30   1.302e-30   -29.683   -29.886    -0.202     (0)  
   FeCl2+          8.078e-32   7.191e-32   -31.093   -31.143    -0.051     (0)  
   FeCl3           8.864e-35   8.893e-35   -34.052   -34.051     0.001     (0)  
   Fe2(OH)2+4      0.000e+00   0.000e+00   -49.037   -49.866    -0.829     (0)  
   FeSO4+          0.000e+00   0.000e+00   -51.504   -51.555    -0.051     (0)  
   Fe3(OH)4+5      0.000e+00   0.000e+00   -69.379   -70.674    -1.295     (0)  
   Fe(SO4)2-       0.000e+00   0.000e+00   -76.020   -76.072    -0.052     (0)  
H(0)          4.070e-07
   H2              2.035e-07   2.042e-07    -6.691    -6.690     0.001     (0)  
N(-3)         7.001e-03
   NH4+            6.997e-03   6.165e-03    -2.155    -2.210    -0.055     (0)  
   NH3             3.502e-06   3.513e-06    -5.456    -5.454     0.001     (0)  
   NH4SO4-         8.578e-28   7.636e-28   -27.067   -27.117    -0.051     (0)  
N(3)          0.000e+00
   NO2-            0.000e+00   0.000e+00   -70.046   -70.097    -0.052     (0)  
N(5)          0.000e+00
   NO3-            0.000e+00   0.000e+00   -95.074   -95.128    -0.054     (0)  
Na            7.001e-03
   Na+             7.001e-03   6.223e-03    -2.155    -2.206    -0.051     (0)  
   NaSO4-          3.363e-28   2.999e-28   -27.473   -27.523    -0.050     (0)  
O(0)          0.000e+00
   O2              0.000e+00   0.000e+00   -79.002   -79.000     0.001     (0)  
S(-2)         3.000e-12
   H2S             2.655e-12   2.663e-12   -11.576   -11.575     0.001     (0)  
   HS-             3.443e-13   3.046e-13   -12.463   -12.516    -0.053     (0)  
   S5-2            1.247e-16   7.740e-17   -15.904   -16.111    -0.207     (0)  
   S4-2            7.278e-17   4.516e-17   -16.138   -16.345    -0.207     (0)  
   S6-2            6.457e-17   4.006e-17   -16.190   -16.397    -0.207     (0)  
   S-2             5.860e-20   3.679e-20   -19.232   -19.434    -0.202     (0)  
   S3-2            2.565e-20   1.591e-20   -19.591   -19.798    -0.207     (0)  
   S2-2            1.456e-21   9.031e-22   -20.837   -21.044    -0.207     (0)  
   Fe(HS)2         5.252e-29   5.269e-29   -28.280   -28.278     0.001     (0)  
   Fe(HS)3-        1.969e-39   1.748e-39   -38.706   -38.758    -0.052     (0)  
S(6)          1.677e-26
   SO4-2           1.557e-26   9.615e-27   -25.808   -26.017    -0.209     (0)  
   NH4SO4-         8.578e-28   7.636e-28   -27.067   -27.117    -0.051     (0)  
   NaSO4-          3.363e-28   2.999e-28   -27.473   -27.523    -0.050     (0)  
   HSO4-           1.050e-30   9.330e-31   -29.979   -30.030    -0.051     (0)  
   FeSO4           1.086e-36   1.089e-36   -35.964   -35.963     0.001     (0)  
   FeSO4+          0.000e+00   0.000e+00   -51.504   -51.555    -0.051     (0)  
   Fe(SO4)2-       0.000e+00   0.000e+00   -76.020   -76.072    -0.052     (0)  

------------------------------Saturation indices-------------------------------

  Phase               SI** log IAP   log K(298 K,   1 atm)

  Fe(OH)2.7Cl0.3  -10.79    -13.83   -3.04  Fe(OH)2.7Cl0.3
  Fe2(SO4)3      -140.55   -136.97    3.58  Fe2(SO4)3
  Fe3(OH)8        -43.33    -23.11   20.22  Fe3(OH)8
  Ferrihydrite    -16.35    -11.46    4.89  Fe(OH)3
  FeS(ppt)        -14.80    -18.71   -3.92  FeS
  Goethite        -11.96    -11.46    0.50  FeOOH
  Greigite        -56.23    -69.41  -13.18  Fe3S4
  Halite           -5.70     -4.11    1.58  NaCl
  Hematite        -18.91    -22.92   -4.01  Fe2O3
  Jarosite-H      -98.31   -110.41  -12.10  (H3O)Fe3(SO4)2(OH)6
  Jarosite-Na     -95.41   -106.61  -11.20  NaFe3(SO4)2(OH)6
  Lepidocrocite   -12.83    -11.46    1.37  FeOOH
  Mackinawite     -16.62    -11.77    4.85  FeS
  Maghemite       -29.30    -22.92    6.39  Fe2O3
  Magnetite       -26.85    -23.11    3.74  Fe3O4
  Melanterite     -35.74    -38.21   -2.47  FeSO4:7H2O
  Mirabilite      -29.32    -30.43   -1.11  Na2SO4:10H2O
  NaCl             15.89     -4.11  -20.00  NaCl
  NaNO3           -77.33    -97.33  -20.00  NaNO3
  O2(g)           -76.04      7.08   83.12  O2
  pe_fix            4.23      4.23    0.00  e-
  pH_fix           -6.00     -6.00    0.00  H+
  Pyrite          -16.93    -45.87  -28.93  FeS2
  Pyrrhotite      -15.51    -11.77    3.74  FeS
  Sulfur          -12.87    -14.98   -2.11  S
  Thenardite      -30.25    -30.43   -0.18  Na2SO4

**For a gas, SI = log10(fugacity). Fugacity = pressure * phi / 1 atm.
  For ideal gases, phi = 1.

Reaction step 2.

Using solution 1.	PURE WATER
Using pure phase assemblage 1.	
Using reaction 1.	

Reaction 1.	

	  1.000e-12 moles of the following reaction have been added:

	                 Relative
	Reactant            moles

	Fe1S3                1.00000

	                 Relative
	Element             moles
	Fe                   1.00000
	S                    3.00000

-------------------------------Phase assemblage--------------------------------

                                                      Moles in assemblage
Phase               SI  log IAP  log K(T, P)   Initial       Final       Delta

Greigite        -54.12   -67.30    -13.18    0.000e+00           0   0.000e+00
Mackinawite     -16.02   -11.17      4.85    0.000e+00           0   0.000e+00
NaNO3           -77.33   -97.33    -20.00    0.000e+00           0   0.000e+00
Pyrite          -16.03   -44.97    -28.93    0.000e+00           0   0.000e+00
Pyrrhotite      -14.91   -11.17      3.74    0.000e+00           0   0.000e+00
pH_fix           -6.00    -6.00      0.00
	 HCl                is reactant       9.986e+00   9.986e+00  -1.657e-12
pe_fix            4.23     4.23      0.00
	 O2                 is reactant       1.001e+01   1.001e+01   9.983e-13

-----------------------------Solution composition------------------------------

	Elements           Molality       Moles

	Cl                1.400e-02   1.400e-02
	Fe                2.000e-12   2.000e-12
	N                 7.001e-03   7.000e-03
	Na                7.001e-03   7.000e-03
	S                 6.001e-12   6.000e-12

----------------------------Description of solution----------------------------

                                       pH  =   6.000      Charge balance
                                       pe  =  -4.230      Adjusted to redox equilibrium
                        Activity of water  =   1.000
                 Ionic strength (mol/kgw)  =   1.400e-02
                       Mass of water (kg)  =   9.999e-01
                 Total alkalinity (eq/kg)  =   2.405e-06
                         Temperature (°C)  =  25.00
                  Electrical balance (eq)  =  -1.155e-10
 Percent error, 100*(Cat-|An|)/(Cat+|An|)  =  -0.00
                               Iterations  =   5
                                  Total H  = 1.110264e+02
                                  Total O  = 5.549922e+01

----------------------------Distribution of species----------------------------

                                               Log       Log       Log    mole V
   Species          Molality    Activity  Molality  Activity     Gamma    cm³/mol

   H+              1.108e-06   1.000e-06    -5.955    -6.000    -0.045      0.00
   OH-             1.135e-08   1.004e-08    -7.945    -7.998    -0.053     (0)  
   H2O             5.551e+01   9.995e-01     1.744    -0.000     0.000     18.07
Cl            1.400e-02
   Cl-             1.400e-02   1.237e-02    -1.854    -1.908    -0.054     (0)  
   FeCl+2          4.146e-30   2.603e-30   -29.382   -29.584    -0.202     (0)  
   FeCl2+          1.616e-31   1.438e-31   -30.792   -30.842    -0.051     (0)  
   FeCl3           1.773e-34   1.779e-34   -33.751   -33.750     0.001     (0)  
Fe(2)         2.000e-12
   Fe+2            2.000e-12   1.274e-12   -11.699   -11.895    -0.196     (0)  
   FeOH+           4.524e-16   4.028e-16   -15.344   -15.395    -0.051     (0)  
   Fe(OH)2         3.415e-21   3.426e-21   -20.467   -20.465     0.001     (0)  
   Fe(OH)3-        1.429e-25   1.272e-25   -24.845   -24.895    -0.051     (0)  
   Fe(HS)2         4.202e-28   4.215e-28   -27.377   -27.375     0.001     (0)  
   FeSO4           4.343e-36   4.357e-36   -35.362   -35.361     0.001     (0)  
   Fe(HS)3-        3.151e-38   2.796e-38   -37.502   -37.553    -0.052     (0)  
Fe(3)         1.695e-23
   Fe(OH)2+        1.670e-23   1.489e-23   -22.777   -22.827    -0.050     (0)  
   Fe(OH)3         1.743e-25   1.748e-25   -24.759   -24.757     0.001     (0)  
   FeOH+2          7.164e-26   4.498e-26   -25.145   -25.347    -0.202     (0)  
   Fe(OH)4-        1.960e-27   1.748e-27   -26.708   -26.758    -0.050     (0)  
   Fe+3            1.760e-29   6.970e-30   -28.754   -29.157    -0.402     (0)  
   FeCl+2          4.146e-30   2.603e-30   -29.382   -29.584    -0.202     (0)  
   FeCl2+          1.616e-31   1.438e-31   -30.792   -30.842    -0.051     (0)  
   FeCl3           1.773e-34   1.779e-34   -33.751   -33.750     0.001     (0)  
   Fe2(OH)2+4      0.000e+00   0.000e+00   -48.435   -49.264    -0.829     (0)  
   FeSO4+          0.000e+00   0.000e+00   -50.902   -50.953    -0.051     (0)  
   Fe3(OH)4+5      0.000e+00   0.000e+00   -68.476   -69.771    -1.295     (0)  
   Fe(SO4)2-       0.000e+00   0.000e+00   -75.117   -75.169    -0.052     (0)  
H(0)          4.070e-07
   H2              2.035e-07   2.042e-07    -6.691    -6.690     0.001     (0)  
N(-3)         7.001e-03
   NH4+            6.997e-03   6.165e-03    -2.155    -2.210    -0.055     (0)  
   NH3             3.502e-06   3.513e-06    -5.456    -5.454     0.001     (0)  
   NH4SO4-         1.716e-27   1.527e-27   -26.766   -26.816    -0.051     (0)  
N(3)          0.000e+00
   NO2-            0.000e+00   0.000e+00   -70.046   -70.097    -0.052     (0)  
N(5)          0.000e+00
   NO3-            0.000e+00   0.000e+00   -95.074   -95.128    -0.054     (0)  
Na            7.001e-03
   Na+             7.001e-03   6.223e-03    -2.155    -2.206    -0.051     (0)  
   NaSO4-          6.727e-28   5.997e-28   -27.172   -27.222    -0.050     (0)  
O(0)          0.000e+00
   O2              0.000e+00   0.000e+00   -79.002   -79.000     0.001     (0)  
S(-2)         6.001e-12
   H2S             5.310e-12   5.327e-12   -11.275   -11.274     0.001     (0)  
   HS-             6.885e-13   6.092e-13   -12.162   -12.215    -0.053     (0)  
   S5-2            2.495e-16   1.548e-16   -15.603   -15.810    -0.207     (0)  
   S4-2            1.456e-16   9.032e-17   -15.837   -16.044    -0.207     (0)  
   S6-2            1.291e-16   8.013e-17   -15.889   -16.096    -0.207     (0)  
   S-2             1.172e-19   7.358e-20   -18.931   -19.133    -0.202     (0)  
   S3-2            5.129e-20   3.183e-20   -19.290   -19.497    -0.207     (0)  
   S2-2            2.911e-21   1.806e-21   -20.536   -20.743    -0.207     (0)  
   Fe(HS)2         4.202e-28   4.215e-28   -27.377   -27.375     0.001     (0)  
   Fe(HS)3-        3.151e-38   2.796e-38   -37.502   -37.553    -0.052     (0)  
S(6)          3.354e-26
   SO4-2           3.115e-26   1.923e-26   -25.507   -25.716    -0.209     (0)  
   NH4SO4-         1.716e-27   1.527e-27   -26.766   -26.816    -0.051     (0)  
   NaSO4-          6.727e-28   5.997e-28   -27.172   -27.222    -0.050     (0)  
   HSO4-           2.100e-30   1.866e-30   -29.678   -29.729    -0.051     (0)  
   FeSO4           4.343e-36   4.357e-36   -35.362   -35.361     0.001     (0)  
   FeSO4+          0.000e+00   0.000e+00   -50.902   -50.953    -0.051     (0)  
   Fe(SO4)2-       0.000e+00   0.000e+00   -75.117   -75.169    -0.052     (0)  

------------------------------Saturation indices-------------------------------

  Phase               SI** log IAP   log K(298 K,   1 atm)

  Fe(OH)2.7Cl0.3  -10.49    -13.53   -3.04  Fe(OH)2.7Cl0.3
  Fe2(SO4)3      -139.04   -135.46    3.58  Fe2(SO4)3
  Fe3(OH)8        -42.43    -22.21   20.22  Fe3(OH)8
  Ferrihydrite    -16.05    -11.16    4.89  Fe(OH)3
  FeS(ppt)        -14.19    -18.11   -3.92  FeS
  Goethite        -11.66    -11.16    0.50  FeOOH
  Greigite        -54.12    -67.30  -13.18  Fe3S4
  Halite           -5.70     -4.11    1.58  NaCl
  Hematite        -18.31    -22.31   -4.01  Fe2O3
  Jarosite-H      -96.80   -108.90  -12.10  (H3O)Fe3(SO4)2(OH)6
  Jarosite-Na     -93.91   -105.11  -11.20  NaFe3(SO4)2(OH)6
  Lepidocrocite   -12.53    -11.16    1.37  FeOOH
  Mackinawite     -16.02    -11.17    4.85  FeS
  Maghemite       -28.70    -22.31    6.39  Fe2O3
  Magnetite       -25.95    -22.21    3.74  Fe3O4
  Melanterite     -35.14    -37.61   -2.47  FeSO4:7H2O
  Mirabilite      -29.02    -30.13   -1.11  Na2SO4:10H2O
  NaCl             15.89     -4.11  -20.00  NaCl
  NaNO3           -77.33    -97.33  -20.00  NaNO3
  O2(g)           -76.04      7.08   83.12  O2
  pe_fix            4.23      4.23    0.00  e-
  pH_fix           -6.00     -6.00    0.00  H+
  Pyrite          -16.03    -44.97  -28.93  FeS2
  Pyrrhotite      -14.91    -11.17    3.74  FeS
  Sulfur          -12.57    -14.68   -2.11  S
  Thenardite      -29.95    -30.13   -0.18  Na2SO4

**For a gas, SI = log10(fugacity). Fugacity = pressure * phi / 1 atm.
  For ideal gases, phi = 1.

Reaction step 3.

Using solution 1.	PURE WATER
Using pure phase assemblage 1.	
Using reaction 1.	

Reaction 1.	

	  1.000e-12 moles of the following reaction have been added:

	                 Relative
	Reactant            moles

	Fe1S3                1.00000

	                 Relative
	Element             moles
	Fe                   1.00000
	S                    3.00000

-------------------------------Phase assemblage--------------------------------

                                                      Moles in assemblage
Phase               SI  log IAP  log K(T, P)   Initial       Final       Delta

Greigite        -52.89   -66.07    -13.18    0.000e+00           0   0.000e+00
Mackinawite     -15.67   -10.82      4.85    0.000e+00           0   0.000e+00
NaNO3           -77.33   -97.33    -20.00    0.000e+00           0   0.000e+00
Pyrite          -15.50   -44.44    -28.93    0.000e+00           0   0.000e+00
Pyrrhotite      -14.56   -10.82      3.74    0.000e+00           0   0.000e+00
pH_fix           -6.00    -6.00      0.00
	 HCl                is reactant       9.986e+00   9.986e+00  -1.656e-12
pe_fix            4.23     4.23      0.00
	 O2                 is reactant       1.001e+01   1.001e+01   1.000e-12

-----------------------------Solution composition------------------------------

	Elements           Molality       Moles

	Cl                1.400e-02   1.400e-02
	Fe                3.000e-12   3.000e-12
	N                 7.001e-03   7.000e-03
	Na                7.001e-03   7.000e-03
	S                 9.001e-12   9.000e-12

----------------------------Description of solution----------------------------

                                       pH  =   6.000      Charge balance
                                       pe  =  -4.230      Adjusted to redox equilibrium
                        Activity of water  =   1.000
                 Ionic strength (mol/kgw)  =   1.400e-02
                       Mass of water (kg)  =   9.999e-01
                 Total alkalinity (eq/kg)  =   2.405e-06
                         Temperature (°C)  =  25.00
                  Electrical balance (eq)  =  -1.155e-10
 Percent error, 100*(Cat-|An|)/(Cat+|An|)  =  -0.00
                               Iterations  =   4
                                  Total H  = 1.110264e+02
                                  Total O  = 5.549922e+01

----------------------------Distribution of species----------------------------

                                               Log       Log       Log    mole V
   Species          Molality    Activity  Molality  Activity     Gamma    cm³/mol

   H+              1.108e-06   1.000e-06    -5.955    -6.000    -0.045      0.00
   OH-             1.135e-08   1.004e-08    -7.945    -7.998    -0.053     (0)  
   H2O             5.551e+01   9.995e-01     1.744    -0.000     0.000     18.07
Cl            1.400e-02
   Cl-             1.400e-02   1.237e-02    -1.854    -1.908    -0.054     (0)  
   FeCl+2          6.219e-30   3.905e-30   -29.206   -29.408    -0.202     (0)  
   FeCl2+          2.423e-31   2.157e-31   -30.616   -30.666    -0.051     (0)  
   FeCl3           2.659e-34   2.668e-34   -33.575   -33.574     0.001     (0)  
Fe(2)         3.000e-12
   Fe+2            3.000e-12   1.911e-12   -11.523   -11.719    -0.196     (0)  
   FeOH+           6.787e-16   6.041e-16   -15.168   -15.219    -0.051     (0)  
   Fe(OH)2         5.123e-21   5.140e-21   -20.290   -20.289     0.001     (0)  
   Fe(OH)3-        2.144e-25   1.909e-25   -24.669   -24.719    -0.051     (0)  
   Fe(HS)2         1.418e-27   1.423e-27   -26.848   -26.847     0.001     (0)  
   FeSO4           9.772e-36   9.804e-36   -35.010   -35.009     0.001     (0)  
   Fe(HS)3-        1.595e-37   1.416e-37   -36.797   -36.849    -0.052     (0)  
Fe(3)         2.542e-23
   Fe(OH)2+        2.505e-23   2.233e-23   -22.601   -22.651    -0.050     (0)  
   Fe(OH)3         2.614e-25   2.623e-25   -24.583   -24.581     0.001     (0)  
   FeOH+2          1.075e-25   6.747e-26   -24.969   -25.171    -0.202     (0)  
   Fe(OH)4-        2.940e-27   2.621e-27   -26.532   -26.581    -0.050     (0)  
   Fe+3            2.641e-29   1.046e-29   -28.578   -28.981    -0.402     (0)  
   FeCl+2          6.219e-30   3.905e-30   -29.206   -29.408    -0.202     (0)  
   FeCl2+          2.423e-31   2.157e-31   -30.616   -30.666    -0.051     (0)  
   FeCl3           2.659e-34   2.668e-34   -33.575   -33.574     0.001     (0)  
   Fe2(OH)2+4      0.000e+00   0.000e+00   -48.083   -48.912    -0.829     (0)  
   FeSO4+          0.000e+00   0.000e+00   -50.550   -50.601    -0.051     (0)  
   Fe3(OH)4+5      0.000e+00   0.000e+00   -67.947   -69.243    -1.295     (0)  
   Fe(SO4)2-       0.000e+00   0.000e+00   -74.589   -74.641    -0.052     (0)  
H(0)          4.070e-07
   H2              2.035e-07   2.042e-07    -6.691    -6.690     0.001     (0)  
N(-3)         7.001e-03
   NH4+            6.997e-03   6.165e-03    -2.155    -2.210    -0.055     (0)  
   NH3             3.502e-06   3.513e-06    -5.456    -5.454     0.001     (0)  
   NH4SO4-         2.573e-27   2.291e-27   -26.589   -26.640    -0.051     (0)  
N(3)          0.000e+00
   NO2-            0.000e+00   0.000e+00   -70.046   -70.097    -0.052     (0)  
N(5)          0.000e+00
   NO3-            0.000e+00   0.000e+00   -95.074   -95.128    -0.054     (0)  
Na            7.001e-03
   Na+             7.001e-03   6.223e-03    -2.155    -2.206    -0.051     (0)  
   NaSO4-          1.009e-27   8.996e-28   -26.996   -27.046    -0.050     (0)  
O(0)          0.000e+00
   O2              0.000e+00   0.000e+00   -79.002   -79.000     0.001     (0)  
S(-2)         9.001e-12
   H2S             7.964e-12   7.990e-12   -11.099   -11.097     0.001     (0)  
   HS-             1.033e-12   9.139e-13   -11.986   -12.039    -0.053     (0)  
   S5-2            3.742e-16   2.322e-16   -15.427   -15.634    -0.207     (0)  
   S4-2            2.184e-16   1.355e-16   -15.661   -15.868    -0.207     (0)  
   S6-2            1.937e-16   1.202e-16   -15.713   -15.920    -0.207     (0)  
   S-2             1.758e-19   1.104e-19   -18.755   -18.957    -0.202     (0)  
   S3-2            7.694e-20   4.774e-20   -19.114   -19.321    -0.207     (0)  
   S2-2            4.367e-21   2.709e-21   -20.360   -20.567    -0.207     (0)  
   Fe(HS)2         1.418e-27   1.423e-27   -26.848   -26.847     0.001     (0)  
   Fe(HS)3-        1.595e-37   1.416e-37   -36.797   -36.849    -0.052     (0)  
S(6)          5.031e-26
   SO4-2           4.672e-26   2.884e-26   -25.330   -25.540    -0.209     (0)  
   NH4SO4-         2.573e-27   2.291e-27   -26.589   -26.640    -0.051     (0)  
   NaSO4-          1.009e-27   8.996e-28   -26.996   -27.046    -0.050     (0)  
   HSO4-           3.150e-30   2.799e-30   -29.502   -29.553    -0.051     (0)  
   FeSO4           9.772e-36   9.804e-36   -35.010   -35.009     0.001     (0)  
   FeSO4+          0.000e+00   0.000e+00   -50.550   -50.601    -0.051     (0)  
   Fe(SO4)2-       0.000e+00   0.000e+00   -74.589   -74.641    -0.052     (0)  

------------------------------Saturation indices-------------------------------

  Phase               SI** log IAP   log K(298 K,   1 atm)

  Fe(OH)2.7Cl0.3  -10.31    -13.35   -3.04  Fe(OH)2.7Cl0.3
  Fe2(SO4)3      -138.16   -134.58    3.58  Fe2(SO4)3
  Fe3(OH)8        -41.90    -21.68   20.22  Fe3(OH)8
  Ferrihydrite    -15.87    -10.98    4.89  Fe(OH)3
  FeS(ppt)        -13.84    -17.76   -3.92  FeS
  Goethite        -11.48    -10.98    0.50  FeOOH
  Greigite        -52.89    -66.07  -13.18  Fe3S4
  Halite           -5.70     -4.11    1.58  NaCl
  Hematite        -17.95    -21.96   -4.01  Fe2O3
  Jarosite-H      -95.92   -108.02  -12.10  (H3O)Fe3(SO4)2(OH)6
  Jarosite-Na     -93.03   -104.23  -11.20  NaFe3(SO4)2(OH)6
  Lepidocrocite   -12.35    -10.98    1.37  FeOOH
  Mackinawite     -15.67    -10.82    4.85  FeS
  Maghemite       -28.35    -21.96    6.39  Fe2O3
  Magnetite       -25.42    -21.68    3.74  Fe3O4
  Melanterite     -34.79    -37.26   -2.47  FeSO4:7H2O
  Mirabilite      -28.84    -29.95   -1.11  Na2SO4:10H2O
  NaCl             15.89     -4.11  -20.00  NaCl
  NaNO3           -77.33    -97.33  -20.00  NaNO3
  O2(g)           -76.04      7.08   83.12  O2
  pe_fix            4.23      4.23    0.00  e-
  pH_fix           -6.00     -6.00    0.00  H+
  Pyrite          -15.50    -44.44  -28.93  FeS2
  Pyrrhotite      -14.56    -10.82    3.74  FeS
  Sulfur          -12.39    -14.50   -2.11  S
  Thenardite      -29.77    -29.95   -0.18  Na2SO4

**For a gas, SI = log10(fugacity). Fugacity = pressure * phi / 1 atm.
  For ideal gases, phi = 1.

Reaction step 4.

Using solution 1.	PURE WATER
Using pure phase assemblage 1.	
Using reaction 1.	

Reaction 1.	

	  1.000e-12 moles of the following reaction have been added:

	                 Relative
	Reactant            moles

	Fe1S3                1.00000

	                 Relative
	Element             moles
	Fe                   1.00000
	S                    3.00000

-------------------------------Phase assemblage--------------------------------

                                                      Moles in assemblage
Phase               SI  log IAP  log K(T, P)   Initial       Final       Delta

Greigite        -52.02   -65.20    -13.18    0.000e+00           0   0.000e+00
Mackinawite     -15.42   -10.57      4.85    0.000e+00           0   0.000e+00
NaNO3           -77.33   -97.33    -20.00    0.000e+00           0   0.000e+00
Pyrite          -15.13   -44.06    -28.93    0.000e+00           0   0.000e+00
Pyrrhotite      -14.31   -10.57      3.74    0.000e+00           0   0.000e+00
pH_fix           -6.00    -6.00      0.00
	 HCl                is reactant       9.986e+00   9.986e+00  -1.656e-12
pe_fix            4.23     4.23      0.00
	 O2                 is reactant       1.001e+01   1.001e+01   9.965e-13

-----------------------------Solution composition------------------------------

	Elements           Molality       Moles

	Cl                1.400e-02   1.400e-02
	Fe                4.001e-12   4.000e-12
	N                 7.001e-03   7.000e-03
	Na                7.001e-03   7.000e-03
	S                 1.200e-11   1.200e-11

----------------------------Description of solution----------------------------

                                       pH  =   6.000      Charge balance
                                       pe  =  -4.230      Adjusted to redox equilibrium
                        Activity of water  =   1.000
                 Ionic strength (mol/kgw)  =   1.400e-02
                       Mass of water (kg)  =   9.999e-01
                 Total alkalinity (eq/kg)  =   2.405e-06
                         Temperature (°C)  =  25.00
                  Electrical balance (eq)  =  -1.155e-10
 Percent error, 100*(Cat-|An|)/(Cat+|An|)  =  -0.00
                               Iterations  =   4
                                  Total H  = 1.110264e+02
                                  Total O  = 5.549922e+01

----------------------------Distribution of species----------------------------

                                               Log       Log       Log    mole V
   Species          Molality    Activity  Molality  Activity     Gamma    cm³/mol

   H+              1.108e-06   1.000e-06    -5.955    -6.000    -0.045      0.00
   OH-             1.135e-08   1.004e-08    -7.945    -7.998    -0.053     (0)  
   H2O             5.551e+01   9.995e-01     1.744    -0.000     0.000     18.07
Cl            1.400e-02
   Cl-             1.400e-02   1.237e-02    -1.854    -1.908    -0.054     (0)  
   FeCl+2          8.292e-30   5.207e-30   -29.081   -29.283    -0.202     (0)  
   FeCl2+          3.231e-31   2.876e-31   -30.491   -30.541    -0.051     (0)  
   FeCl3           3.546e-34   3.557e-34   -33.450   -33.449     0.001     (0)  
Fe(2)         4.001e-12
   Fe+2            4.000e-12   2.548e-12   -11.398   -11.594    -0.196     (0)  
   FeOH+           9.049e-16   8.055e-16   -15.043   -15.094    -0.051     (0)  
   Fe(OH)2         6.831e-21   6.853e-21   -20.166   -20.164     0.001     (0)  
   Fe(OH)3-        2.859e-25   2.545e-25   -24.544   -24.594    -0.051     (0)  
   Fe(HS)2         3.361e-27   3.372e-27   -26.473   -26.472     0.001     (0)  
   FeSO4           1.737e-35   1.743e-35   -34.760   -34.759     0.001     (0)  
   Fe(HS)3-        5.041e-37   4.474e-37   -36.297   -36.349    -0.052     (0)  
Fe(3)         3.390e-23
   Fe(OH)2+        3.340e-23   2.978e-23   -22.476   -22.526    -0.050     (0)  
   Fe(OH)3         3.485e-25   3.497e-25   -24.458   -24.456     0.001     (0)  
   FeOH+2          1.433e-25   8.996e-26   -24.844   -25.046    -0.202     (0)  
   Fe(OH)4-        3.920e-27   3.495e-27   -26.407   -26.457    -0.050     (0)  
   Fe+3            3.521e-29   1.394e-29   -28.453   -28.856    -0.402     (0)  
   FeCl+2          8.292e-30   5.207e-30   -29.081   -29.283    -0.202     (0)  
   FeCl2+          3.231e-31   2.876e-31   -30.491   -30.541    -0.051     (0)  
   FeCl3           3.546e-34   3.557e-34   -33.450   -33.449     0.001     (0)  
   Fe2(OH)2+4      0.000e+00   0.000e+00   -47.833   -48.662    -0.829     (0)  
   FeSO4+          0.000e+00   0.000e+00   -50.300   -50.351    -0.051     (0)  
   Fe3(OH)4+5      0.000e+00   0.000e+00   -67.573   -68.868    -1.295     (0)  
   Fe(SO4)2-       0.000e+00   0.000e+00   -74.214   -74.266    -0.052     (0)  
H(0)          4.070e-07
   H2              2.035e-07   2.042e-07    -6.691    -6.690     0.001     (0)  
N(-3)         7.001e-03
   NH4+            6.997e-03   6.165e-03    -2.155    -2.210    -0.055     (0)  
   NH3             3.502e-06   3.513e-06    -5.456    -5.454     0.001     (0)  
   NH4SO4-         3.431e-27   3.054e-27   -26.465   -26.515    -0.051     (0)  
N(3)          0.000e+00
   NO2-            0.000e+00   0.000e+00   -70.046   -70.097    -0.052     (0)  
N(5)          0.000e+00
   NO3-            0.000e+00   0.000e+00   -95.074   -95.128    -0.054     (0)  
Na            7.001e-03
   Na+             7.001e-03   6.223e-03    -2.155    -2.206    -0.051     (0)  
   NaSO4-          1.345e-27   1.199e-27   -26.871   -26.921    -0.050     (0)  
O(0)          0.000e+00
   O2              0.000e+00   0.000e+00   -79.002   -79.000     0.001     (0)  
S(-2)         1.200e-11
   H2S             1.062e-11   1.065e-11   -10.974   -10.973     0.001     (0)  
   HS-             1.377e-12   1.218e-12   -11.861   -11.914    -0.053     (0)  
   S5-2            4.990e-16   3.096e-16   -15.302   -15.509    -0.207     (0)  
   S4-2            2.911e-16   1.806e-16   -15.536   -15.743    -0.207     (0)  
   S6-2            2.583e-16   1.603e-16   -15.588   -15.795    -0.207     (0)  
   S-2             2.344e-19   1.472e-19   -18.630   -18.832    -0.202     (0)  
   S3-2            1.026e-19   6.365e-20   -18.989   -19.196    -0.207     (0)  
   S2-2            5.822e-21   3.613e-21   -20.235   -20.442    -0.207     (0)  
   Fe(HS)2         3.361e-27   3.372e-27   -26.473   -26.472     0.001     (0)  
   Fe(HS)3-        5.041e-37   4.474e-37   -36.297   -36.349    -0.052     (0)  
S(6)          6.708e-26
   SO4-2           6.230e-26   3.846e-26   -25.206   -25.415    -0.209     (0)  
   NH4SO4-         3.431e-27   3.054e-27   -26.465   -26.515    -0.051     (0)  
   NaSO4-          1.345e-27   1.199e-27   -26.871   -26.921    -0.050     (0)  
   HSO4-           4.200e-30   3.732e-30   -29.377   -29.428    -0.051     (0)  
   FeSO4           1.737e-35   1.743e-35   -34.760   -34.759     0.001     (0)  
   FeSO4+          0.000e+00   0.000e+00   -50.300   -50.351    -0.051     (0)  
   Fe(SO4)2-       0.000e+00   0.000e+00   -74.214   -74.266    -0.052     (0)  

------------------------------Saturation indices-------------------------------

  Phase               SI** log IAP   log K(298 K,   1 atm)

  Fe(OH)2.7Cl0.3  -10.19    -13.23   -3.04  Fe(OH)2.7Cl0.3
  Fe2(SO4)3      -137.54   -133.96    3.58  Fe2(SO4)3
  Fe3(OH)8        -41.53    -21.31   20.22  Fe3(OH)8
  Ferrihydrite    -15.75    -10.86    4.89  Fe(OH)3
  FeS(ppt)        -13.59    -17.51   -3.92  FeS
  Goethite        -11.36    -10.86    0.50  FeOOH
  Greigite        -52.02    -65.20  -13.18  Fe3S4
  Halite           -5.70     -4.11    1.58  NaCl
  Hematite        -17.70    -21.71   -4.01  Fe2O3
  Jarosite-H      -95.30   -107.40  -12.10  (H3O)Fe3(SO4)2(OH)6
  Jarosite-Na     -92.40   -103.60  -11.20  NaFe3(SO4)2(OH)6
  Lepidocrocite   -12.23    -10.86    1.37  FeOOH
  Mackinawite     -15.42    -10.57    4.85  FeS
  Maghemite       -28.10    -21.71    6.39  Fe2O3
  Magnetite       -25.04    -21.31    3.74  Fe3O4
  Melanterite     -34.54    -37.01   -2.47  FeSO4:7H2O
  Mirabilite      -28.72    -29.83   -1.11  Na2SO4:10H2O
  NaCl             15.89     -4.11  -20.00  NaCl
  NaNO3           -77.33    -97.33  -20.00  NaNO3
  O2(g)           -76.04      7.08   83.12  O2
  pe_fix            4.23      4.23    0.00  e-
  pH_fix           -6.00     -6.00    0.00  H+
  Pyrite          -15.13    -44.06  -28.93  FeS2
  Pyrrhotite      -14.31    -10.57    3.74  FeS
  Sulfur          -12.26    -14.37   -2.11  S
  Thenardite      -29.65    -29.83   -0.18  Na2SO4

**For a gas, SI = log10(fugacity). Fugacity = pressure * phi / 1 atm.
  For ideal gases, phi = 1.

Reaction step 5.

Using solution 1.	PURE WATER
Using pure phase assemblage 1.	
Using reaction 1.	

Reaction 1.	

	  1.000e-12 moles of the following reaction have been added:

	                 Relative
	Reactant            moles

	Fe1S3                1.00000

	                 Relative
	Element             moles
	Fe                   1.00000
	S                    3.00000

-------------------------------Phase assemblage--------------------------------

                                                      Moles in assemblage
Phase               SI  log IAP  log K(T, P)   Initial       Final       Delta

Greigite        -51.34   -64.52    -13.18    0.000e+00           0   0.000e+00
Mackinawite     -15.22   -10.37      4.85    0.000e+00           0   0.000e+00
NaNO3           -77.33   -97.33    -20.00    0.000e+00           0   0.000e+00
Pyrite          -14.84   -43.77    -28.93    0.000e+00           0   0.000e+00
Pyrrhotite      -14.11   -10.37      3.74    0.000e+00           0   0.000e+00
pH_fix           -6.00    -6.00      0.00
	 HCl                is reactant       9.986e+00   9.986e+00  -1.656e-12
pe_fix            4.23     4.23      0.00
	 O2                 is reactant       1.001e+01   1.001e+01   1.000e-12

-----------------------------Solution composition------------------------------

	Elements           Molality       Moles

	Cl                1.400e-02   1.400e-02
	Fe                5.001e-12   5.000e-12
	N                 7.001e-03   7.000e-03
	Na                7.001e-03   7.000e-03
	S                 1.500e-11   1.500e-11

----------------------------Description of solution----------------------------

                                       pH  =   6.000      Charge balance
                                       pe  =  -4.230      Adjusted to redox equilibrium
                        Activity of water  =   1.000
                 Ionic strength (mol/kgw)  =   1.400e-02
                       Mass of water (kg)  =   9.999e-01
                 Total alkalinity (eq/kg)  =   2.405e-06
                         Temperature (°C)  =  25.00
                  Electrical balance (eq)  =  -1.155e-10
 Percent error, 100*(Cat-|An|)/(Cat+|An|)  =  -0.00
                               Iterations  =   3
                                  Total H  = 1.110264e+02
                                  Total O  = 5.549922e+01

----------------------------Distribution of species----------------------------

                                               Log       Log       Log    mole V
   Species          Molality    Activity  Molality  Activity     Gamma    cm³/mol

   H+              1.108e-06   1.000e-06    -5.955    -6.000    -0.045      0.00
   OH-             1.135e-08   1.004e-08    -7.945    -7.998    -0.053     (0)  
   H2O             5.551e+01   9.995e-01     1.744    -0.000     0.000     18.07
Cl            1.400e-02
   Cl-             1.400e-02   1.237e-02    -1.854    -1.908    -0.054     (0)  
   FeCl+2          1.037e-29   6.508e-30   -28.984   -29.187    -0.202     (0)  
   FeCl2+          4.039e-31   3.595e-31   -30.394   -30.444    -0.051     (0)  
   FeCl3           4.432e-34   4.446e-34   -33.353   -33.352     0.001     (0)  
Fe(2)         5.001e-12
   Fe+2            5.000e-12   3.186e-12   -11.301   -11.497    -0.196     (0)  
   FeOH+           1.131e-15   1.007e-15   -14.946   -14.997    -0.051     (0)  
   Fe(OH)2         8.538e-21   8.566e-21   -20.069   -20.067     0.001     (0)  
   Fe(OH)3-        3.574e-25   3.181e-25   -24.447   -24.497    -0.051     (0)  
   Fe(HS)2         6.565e-27   6.586e-27   -26.183   -26.181     0.001     (0)  
   FeSO4           2.714e-35   2.723e-35   -34.566   -34.565     0.001     (0)  
   Fe(HS)3-        1.231e-36   1.092e-36   -35.910   -35.962    -0.052     (0)  
Fe(3)         4.237e-23
   Fe(OH)2+        4.175e-23   3.722e-23   -22.379   -22.429    -0.050     (0)  
   Fe(OH)3         4.357e-25   4.371e-25   -24.361   -24.359     0.001     (0)  
   FeOH+2          1.791e-25   1.125e-25   -24.747   -24.949    -0.202     (0)  
   Fe(OH)4-        4.900e-27   4.369e-27   -26.310   -26.360    -0.050     (0)  
   Fe+3            4.401e-29   1.743e-29   -28.356   -28.759    -0.402     (0)  
   FeCl+2          1.037e-29   6.508e-30   -28.984   -29.187    -0.202     (0)  
   FeCl2+          4.039e-31   3.595e-31   -30.394   -30.444    -0.051     (0)  
   FeCl3           4.432e-34   4.446e-34   -33.353   -33.352     0.001     (0)  
   Fe2(OH)2+4      0.000e+00   0.000e+00   -47.639   -48.468    -0.829     (0)  
   FeSO4+          0.000e+00   0.000e+00   -50.106   -50.157    -0.051     (0)  
   Fe3(OH)4+5      0.000e+00   0.000e+00   -67.282   -68.577    -1.295     (0)  
   Fe(SO4)2-       0.000e+00   0.000e+00   -73.923   -73.975    -0.052     (0)  
H(0)          4.070e-07
   H2              2.035e-07   2.042e-07    -6.691    -6.690     0.001     (0)  
N(-3)         7.001e-03
   NH4+            6.997e-03   6.165e-03    -2.155    -2.210    -0.055     (0)  
   NH3             3.502e-06   3.513e-06    -5.456    -5.454     0.001     (0)  
   NH4SO4-         4.289e-27   3.818e-27   -26.368   -26.418    -0.051     (0)  
N(3)          0.000e+00
   NO2-            0.000e+00   0.000e+00   -70.046   -70.097    -0.052     (0)  
N(5)          0.000e+00
   NO3-            0.000e+00   0.000e+00   -95.074   -95.128    -0.054     (0)  
Na            7.001e-03
   Na+             7.001e-03   6.223e-03    -2.155    -2.206    -0.051     (0)  
   NaSO4-          1.682e-27   1.499e-27   -26.774   -26.824    -0.050     (0)  
O(0)          0.000e+00
   O2              0.000e+00   0.000e+00   -79.002   -79.000     0.001     (0)  
S(-2)         1.500e-11
   H2S             1.327e-11   1.332e-11   -10.877   -10.876     0.001     (0)  
   HS-             1.721e-12   1.523e-12   -11.764   -11.817    -0.053     (0)  
   S5-2            6.237e-16   3.870e-16   -15.205   -15.412    -0.207     (0)  
   S4-2            3.639e-16   2.258e-16   -15.439   -15.646    -0.207     (0)  
   S6-2            3.229e-16   2.003e-16   -15.491   -15.698    -0.207     (0)  
   S-2             2.930e-19   1.840e-19   -18.533   -18.735    -0.202     (0)  
   S3-2            1.282e-19   7.957e-20   -18.892   -19.099    -0.207     (0)  
   S2-2            7.278e-21   4.516e-21   -20.138   -20.345    -0.207     (0)  
   Fe(HS)2         6.565e-27   6.586e-27   -26.183   -26.181     0.001     (0)  
   Fe(HS)3-        1.231e-36   1.092e-36   -35.910   -35.962    -0.052     (0)  
S(6)          8.384e-26
   SO4-2           7.787e-26   4.807e-26   -25.109   -25.318    -0.209     (0)  
   NH4SO4-         4.289e-27   3.818e-27   -26.368   -26.418    -0.051     (0)  
   NaSO4-          1.682e-27   1.499e-27   -26.774   -26.824    -0.050     (0)  
   HSO4-           5.251e-30   4.665e-30   -29.280   -29.331    -0.051     (0)  
   FeSO4           2.714e-35   2.723e-35   -34.566   -34.565     0.001     (0)  
   FeSO4+          0.000e+00   0.000e+00   -50.106   -50.157    -0.051     (0)  
   Fe(SO4)2-       0.000e+00   0.000e+00   -73.923   -73.975    -0.052     (0)  

------------------------------Saturation indices-------------------------------

  Phase               SI** log IAP   log K(298 K,   1 atm)

  Fe(OH)2.7Cl0.3  -10.09    -13.13   -3.04  Fe(OH)2.7Cl0.3
  Fe2(SO4)3      -137.05   -133.47    3.58  Fe2(SO4)3
  Fe3(OH)8        -41.24    -21.02   20.22  Fe3(OH)8
  Ferrihydrite    -15.65    -10.76    4.89  Fe(OH)3
  FeS(ppt)        -13.40    -17.31   -3.92  FeS
  Goethite        -11.26    -10.76    0.50  FeOOH
  Greigite        -51.34    -64.52  -13.18  Fe3S4
  Halite           -5.70     -4.11    1.58  NaCl
  Hematite        -17.51    -21.52   -4.01  Fe2O3
  Jarosite-H      -94.81   -106.91  -12.10  (H3O)Fe3(SO4)2(OH)6
  Jarosite-Na     -91.92   -103.12  -11.20  NaFe3(SO4)2(OH)6
  Lepidocrocite   -12.13    -10.76    1.37  FeOOH
  Mackinawite     -15.22    -10.37    4.85  FeS
  Maghemite       -27.90    -21.52    6.39  Fe2O3
  Magnetite       -24.75    -21.02    3.74  Fe3O4
  Melanterite     -34.35    -36.82   -2.47  FeSO4:7H2O
  Mirabilite      -28.62    -29.73   -1.11  Na2SO4:10H2O
  NaCl             15.89     -4.11  -20.00  NaCl
  NaNO3           -77.33    -97.33  -20.00  NaNO3
  O2(g)           -76.04      7.08   83.12  O2
  pe_fix            4.23      4.23    0.00  e-
  pH_fix           -6.00     -6.00    0.00  H+
  Pyrite          -14.84    -43.77  -28.93  FeS2
  Pyrrhotite      -14.11    -10.37    3.74  FeS
  Sulfur          -12.17    -14.28   -2.11  S
  Thenardite      -29.55    -29.73   -0.18  Na2SO4

**For a gas, SI = log10(fugacity). Fugacity = pressure * phi / 1 atm.
  For ideal gases, phi = 1.

Reaction step 6.

Using solution 1.	PURE WATER
Using pure phase assemblage 1.	
Using reaction 1.	

Reaction 1.	

	  1.000e-12 moles of the following reaction have been added:

	                 Relative
	Reactant            moles

	Fe1S3                1.00000

	                 Relative
	Element             moles
	Fe                   1.00000
	S                    3.00000

-------------------------------Phase assemblage--------------------------------

                                                      Moles in assemblage
Phase               SI  log IAP  log K(T, P)   Initial       Final       Delta

Greigite        -50.78   -63.96    -13.18    0.000e+00           0   0.000e+00
Mackinawite     -15.06   -10.21      4.85    0.000e+00           0   0.000e+00
NaNO3           -77.33   -97.33    -20.00    0.000e+00           0   0.000e+00
Pyrite          -14.60   -43.53    -28.93    0.000e+00           0   0.000e+00
Pyrrhotite      -13.96   -10.21      3.74    0.000e+00           0   0.000e+00
pH_fix           -6.00    -6.00      0.00
	 HCl                is reactant       9.986e+00   9.986e+00  -1.656e-12
pe_fix            4.23     4.23      0.00
	 O2                 is reactant       1.001e+01   1.001e+01   9.983e-13

-----------------------------Solution composition------------------------------

	Elements           Molality       Moles

	Cl                1.400e-02   1.400e-02
	Fe                6.001e-12   6.000e-12
	N                 7.001e-03   7.000e-03
	Na                7.001e-03   7.000e-03
	S                 1.800e-11   1.800e-11

----------------------------Description of solution----------------------------

                                       pH  =   6.000      Charge balance
                                       pe  =  -4.230      Adjusted to redox equilibrium
                        Activity of water  =   1.000
                 Ionic strength (mol/kgw)  =   1.400e-02
                       Mass of water (kg)  =   9.999e-01
                 Total alkalinity (eq/kg)  =   2.405e-06
                         Temperature (°C)  =  25.00
                  Electrical balance (eq)  =  -1.155e-10
 Percent error, 100*(Cat-|An|)/(Cat+|An|)  =  -0.00
                               Iterations  =   3
                                  Total H  = 1.110264e+02
                                  Total O  = 5.549922e+01

----------------------------Distribution of species----------------------------

                                               Log       Log       Log    mole V
   Species          Molality    Activity  Molality  Activity     Gamma    cm³/mol

   H+              1.108e-06   1.000e-06    -5.955    -6.000    -0.045      0.00
   OH-             1.135e-08   1.004e-08    -7.945    -7.998    -0.053     (0)  
   H2O             5.551e+01   9.995e-01     1.744    -0.000     0.000     18.07
Cl            1.400e-02
   Cl-             1.400e-02   1.237e-02    -1.854    -1.908    -0.054     (0)  
   FeCl+2          1.244e-29   7.810e-30   -28.905   -29.107    -0.202     (0)  
   FeCl2+          4.847e-31   4.314e-31   -30.315   -30.365    -0.051     (0)  
   FeCl3           5.319e-34   5.336e-34   -33.274   -33.273     0.001     (0)  
Fe(2)         6.001e-12
   Fe+2            5.999e-12   3.823e-12   -11.222   -11.418    -0.196     (0)  
   FeOH+           1.357e-15   1.208e-15   -14.867   -14.918    -0.051     (0)  
   Fe(OH)2         1.025e-20   1.028e-20   -19.989   -19.988     0.001     (0)  
   Fe(OH)3-        4.288e-25   3.817e-25   -24.368   -24.418    -0.051     (0)  
   Fe(HS)2         1.134e-26   1.138e-26   -25.945   -25.944     0.001     (0)  
   FeSO4           3.909e-35   3.921e-35   -34.408   -34.407     0.001     (0)  
   Fe(HS)3-        2.552e-36   2.265e-36   -35.593   -35.645    -0.052     (0)  
Fe(3)         5.084e-23
   Fe(OH)2+        5.010e-23   4.466e-23   -22.300   -22.350    -0.050     (0)  
   Fe(OH)3         5.228e-25   5.245e-25   -24.282   -24.280     0.001     (0)  
   FeOH+2          2.149e-25   1.349e-25   -24.668   -24.870    -0.202     (0)  
   Fe(OH)4-        5.881e-27   5.243e-27   -26.231   -26.280    -0.050     (0)  
   Fe+3            5.281e-29   2.091e-29   -28.277   -28.680    -0.402     (0)  
   FeCl+2          1.244e-29   7.810e-30   -28.905   -29.107    -0.202     (0)  
   FeCl2+          4.847e-31   4.314e-31   -30.315   -30.365    -0.051     (0)  
   FeCl3           5.319e-34   5.336e-34   -33.274   -33.273     0.001     (0)  
   Fe2(OH)2+4      0.000e+00   0.000e+00   -47.481   -48.310    -0.829     (0)  
   FeSO4+          0.000e+00   0.000e+00   -49.948   -49.999    -0.051     (0)  
   Fe3(OH)4+5      0.000e+00   0.000e+00   -67.044   -68.340    -1.295     (0)  
   Fe(SO4)2-       0.000e+00   0.000e+00   -73.686   -73.737    -0.052     (0)  
H(0)          4.070e-07
   H2              2.035e-07   2.042e-07    -6.691    -6.690     0.001     (0)  
N(-3)         7.001e-03
   NH4+            6.997e-03   6.165e-03    -2.155    -2.210    -0.055     (0)  
   NH3             3.502e-06   3.513e-06    -5.456    -5.454     0.001     (0)  
   NH4SO4-         5.147e-27   4.582e-27   -26.288   -26.339    -0.051     (0)  
N(3)          0.000e+00
   NO2-            0.000e+00   0.000e+00   -70.046   -70.097    -0.052     (0)  
N(5)          0.000e+00
   NO3-            0.000e+00   0.000e+00   -95.074   -95.128    -0.054     (0)  
Na            7.001e-03
   Na+             7.001e-03   6.223e-03    -2.155    -2.206    -0.051     (0)  
   NaSO4-          2.018e-27   1.799e-27   -26.695   -26.745    -0.050     (0)  
O(0)          0.000e+00
   O2              0.000e+00   0.000e+00   -79.002   -79.000     0.001     (0)  
S(-2)         1.800e-11
   H2S             1.593e-11   1.598e-11   -10.798   -10.796     0.001     (0)  
   HS-             2.066e-12   1.828e-12   -11.685   -11.738    -0.053     (0)  
   S5-2            7.485e-16   4.644e-16   -15.126   -15.333    -0.207     (0)  
   S4-2            4.367e-16   2.710e-16   -15.360   -15.567    -0.207     (0)  
   S6-2            3.874e-16   2.404e-16   -15.412   -15.619    -0.207     (0)  
   S-2             3.516e-19   2.208e-19   -18.454   -18.656    -0.202     (0)  
   S3-2            1.539e-19   9.548e-20   -18.813   -19.020    -0.207     (0)  
   S2-2            8.733e-21   5.419e-21   -20.059   -20.266    -0.207     (0)  
   Fe(HS)2         1.134e-26   1.138e-26   -25.945   -25.944     0.001     (0)  
   Fe(HS)3-        2.552e-36   2.265e-36   -35.593   -35.645    -0.052     (0)  
S(6)          1.006e-25
   SO4-2           9.344e-26   5.769e-26   -25.029   -25.239    -0.209     (0)  
   NH4SO4-         5.147e-27   4.582e-27   -26.288   -26.339    -0.051     (0)  
   NaSO4-          2.018e-27   1.799e-27   -26.695   -26.745    -0.050     (0)  
   HSO4-           6.301e-30   5.598e-30   -29.201   -29.252    -0.051     (0)  
   FeSO4           3.909e-35   3.921e-35   -34.408   -34.407     0.001     (0)  
   FeSO4+          0.000e+00   0.000e+00   -49.948   -49.999    -0.051     (0)  
   Fe(SO4)2-       0.000e+00   0.000e+00   -73.686   -73.737    -0.052     (0)  

------------------------------Saturation indices-------------------------------

  Phase               SI** log IAP   log K(298 K,   1 atm)

  Fe(OH)2.7Cl0.3  -10.01    -13.05   -3.04  Fe(OH)2.7Cl0.3
  Fe2(SO4)3      -136.66   -133.08    3.58  Fe2(SO4)3
  Fe3(OH)8        -41.00    -20.78   20.22  Fe3(OH)8
  Ferrihydrite    -15.57    -10.68    4.89  Fe(OH)3
  FeS(ppt)        -13.24    -17.16   -3.92  FeS
  Goethite        -11.18    -10.68    0.50  FeOOH
  Greigite        -50.78    -63.96  -13.18  Fe3S4
  Halite           -5.70     -4.11    1.58  NaCl
  Hematite        -17.35    -21.36   -4.01  Fe2O3
  Jarosite-H      -94.42   -106.52  -12.10  (H3O)Fe3(SO4)2(OH)6
  Jarosite-Na     -91.52   -102.72  -11.20  NaFe3(SO4)2(OH)6
  Lepidocrocite   -12.05    -10.68    1.37  FeOOH
  Mackinawite     -15.06    -10.21    4.85  FeS
  Maghemite       -27.75    -21.36    6.39  Fe2O3
  Magnetite       -24.51    -20.78    3.74  Fe3O4
  Melanterite     -34.19    -36.66   -2.47  FeSO4:7H2O
  Mirabilite      -28.54    -29.65   -1.11  Na2SO4:10H2O
  NaCl             15.89     -4.11  -20.00  NaCl
  NaNO3           -77.33    -97.33  -20.00  NaNO3
  O2(g)           -76.04      7.08   83.12  O2
  pe_fix            4.23      4.23    0.00  e-
  pH_fix           -6.00     -6.00    0.00  H+
  Pyrite          -14.60    -43.53  -28.93  FeS2
  Pyrrhotite      -13.96    -10.21    3.74  FeS
  Sulfur          -12.09    -14.20   -2.11  S
  Thenardite      -29.47    -29.65   -0.18  Na2SO4

**For a gas, SI = log10(fugacity). Fugacity = pressure * phi / 1 atm.
  For ideal gases, phi = 1.

Reaction step 7.

Using solution 1.	PURE WATER
Using pure phase assemblage 1.	
Using reaction 1.	

Reaction 1.	

	  1.000e-12 moles of the following reaction have been added:

	                 Relative
	Reactant            moles

	Fe1S3                1.00000

	                 Relative
	Element             moles
	Fe                   1.00000
	S                    3.00000

-------------------------------Phase assemblage--------------------------------

                                                      Moles in assemblage
Phase               SI  log IAP  log K(T, P)   Initial       Final       Delta

Greigite        -50.32   -63.49    -13.18    0.000e+00           0   0.000e+00
Mackinawite     -14.93   -10.08      4.85    0.000e+00           0   0.000e+00
NaNO3           -77.33   -97.33    -20.00    0.000e+00           0   0.000e+00
Pyrite          -14.40   -43.33    -28.93    0.000e+00           0   0.000e+00
Pyrrhotite      -13.82   -10.08      3.74    0.000e+00           0   0.000e+00
pH_fix           -6.00    -6.00      0.00
	 HCl                is reactant       9.986e+00   9.986e+00  -1.656e-12
pe_fix            4.23     4.23      0.00
	 O2                 is reactant       1.001e+01   1.001e+01   9.983e-13

-----------------------------Solution composition------------------------------

	Elements           Molality       Moles

	Cl                1.400e-02   1.400e-02
	Fe                7.001e-12   7.000e-12
	N                 7.001e-03   7.000e-03
	Na                7.001e-03   7.000e-03
	S                 2.100e-11   2.100e-11

----------------------------Description of solution----------------------------

                                       pH  =   6.000      Charge balance
                                       pe  =  -4.230      Adjusted to redox equilibrium
                        Activity of water  =   1.000
                 Ionic strength (mol/kgw)  =   1.400e-02
                       Mass of water (kg)  =   9.999e-01
                 Total alkalinity (eq/kg)  =   2.405e-06
                         Temperature (°C)  =  25.00
                  Electrical balance (eq)  =  -1.155e-10
 Percent error, 100*(Cat-|An|)/(Cat+|An|)  =  -0.00
                               Iterations  =   3
                                  Total H  = 1.110264e+02
                                  Total O  = 5.549922e+01

----------------------------Distribution of species----------------------------

                                               Log       Log       Log    mole V
   Species          Molality    Activity  Molality  Activity     Gamma    cm³/mol

   H+              1.108e-06   1.000e-06    -5.955    -6.000    -0.045      0.00
   OH-             1.135e-08   1.004e-08    -7.945    -7.998    -0.053     (0)  
   H2O             5.551e+01   9.995e-01     1.744    -0.000     0.000     18.07
Cl            1.400e-02
   Cl-             1.400e-02   1.237e-02    -1.854    -1.908    -0.054     (0)  
   FeCl+2          1.451e-29   9.112e-30   -28.838   -29.040    -0.202     (0)  
   FeCl2+          5.654e-31   5.033e-31   -30.248   -30.298    -0.051     (0)  
   FeCl3           6.205e-34   6.225e-34   -33.207   -33.206     0.001     (0)  
Fe(2)         7.001e-12
   Fe+2            6.999e-12   4.460e-12   -11.155   -11.351    -0.196     (0)  
   FeOH+           1.584e-15   1.410e-15   -14.800   -14.851    -0.051     (0)  
   Fe(OH)2         1.195e-20   1.199e-20   -19.922   -19.921     0.001     (0)  
   Fe(OH)3-        5.003e-25   4.453e-25   -24.301   -24.351    -0.051     (0)  
   Fe(HS)2         1.801e-26   1.807e-26   -25.744   -25.743     0.001     (0)  
   FeSO4           5.320e-35   5.338e-35   -34.274   -34.273     0.001     (0)  
   Fe(HS)3-        4.728e-36   4.196e-36   -35.325   -35.377    -0.052     (0)  
Fe(3)         5.932e-23
   Fe(OH)2+        5.845e-23   5.211e-23   -22.233   -22.283    -0.050     (0)  
   Fe(OH)3         6.100e-25   6.119e-25   -24.215   -24.213     0.001     (0)  
   FeOH+2          2.507e-25   1.574e-25   -24.601   -24.803    -0.202     (0)  
   Fe(OH)4-        6.861e-27   6.116e-27   -26.164   -26.214    -0.050     (0)  
   Fe+3            6.161e-29   2.440e-29   -28.210   -28.613    -0.402     (0)  
   FeCl+2          1.451e-29   9.112e-30   -28.838   -29.040    -0.202     (0)  
   FeCl2+          5.654e-31   5.033e-31   -30.248   -30.298    -0.051     (0)  
   FeCl3           6.205e-34   6.225e-34   -33.207   -33.206     0.001     (0)  
   Fe2(OH)2+4      0.000e+00   0.000e+00   -47.347   -48.176    -0.829     (0)  
   FeSO4+          0.000e+00   0.000e+00   -49.814   -49.865    -0.051     (0)  
   Fe3(OH)4+5      0.000e+00   0.000e+00   -66.843   -68.139    -1.295     (0)  
   Fe(SO4)2-       0.000e+00   0.000e+00   -73.485   -73.537    -0.052     (0)  
H(0)          4.070e-07
   H2              2.035e-07   2.042e-07    -6.691    -6.690     0.001     (0)  
N(-3)         7.001e-03
   NH4+            6.997e-03   6.165e-03    -2.155    -2.210    -0.055     (0)  
   NH3             3.502e-06   3.513e-06    -5.456    -5.454     0.001     (0)  
   NH4SO4-         6.005e-27   5.345e-27   -26.222   -26.272    -0.051     (0)  
N(3)          0.000e+00
   NO2-            0.000e+00   0.000e+00   -70.046   -70.097    -0.052     (0)  
N(5)          0.000e+00
   NO3-            0.000e+00   0.000e+00   -95.074   -95.128    -0.054     (0)  
Na            7.001e-03
   Na+             7.001e-03   6.223e-03    -2.155    -2.206    -0.051     (0)  
   NaSO4-          2.354e-27   2.099e-27   -26.628   -26.678    -0.050     (0)  
O(0)          0.000e+00
   O2              0.000e+00   0.000e+00   -79.002   -79.000     0.001     (0)  
S(-2)         2.100e-11
   H2S             1.858e-11   1.864e-11   -10.731   -10.729     0.001     (0)  
   HS-             2.410e-12   2.132e-12   -11.618   -11.671    -0.053     (0)  
   S5-2            8.732e-16   5.418e-16   -15.059   -15.266    -0.207     (0)  
   S4-2            5.095e-16   3.161e-16   -15.293   -15.500    -0.207     (0)  
   S6-2            4.520e-16   2.804e-16   -15.345   -15.552    -0.207     (0)  
   S-2             4.102e-19   2.575e-19   -18.387   -18.589    -0.202     (0)  
   S3-2            1.795e-19   1.114e-19   -18.746   -18.953    -0.207     (0)  
   S2-2            1.019e-20   6.322e-21   -19.992   -20.199    -0.207     (0)  
   Fe(HS)2         1.801e-26   1.807e-26   -25.744   -25.743     0.001     (0)  
   Fe(HS)3-        4.728e-36   4.196e-36   -35.325   -35.377    -0.052     (0)  
S(6)          1.174e-25
   SO4-2           1.090e-25   6.730e-26   -24.963   -25.172    -0.209     (0)  
   NH4SO4-         6.005e-27   5.345e-27   -26.222   -26.272    -0.051     (0)  
   NaSO4-          2.354e-27   2.099e-27   -26.628   -26.678    -0.050     (0)  
   HSO4-           7.351e-30   6.531e-30   -29.134   -29.185    -0.051     (0)  
   FeSO4           5.320e-35   5.338e-35   -34.274   -34.273     0.001     (0)  
   FeSO4+          0.000e+00   0.000e+00   -49.814   -49.865    -0.051     (0)  
   Fe(SO4)2-       0.000e+00   0.000e+00   -73.485   -73.537    -0.052     (0)  

------------------------------Saturation indices-------------------------------

  Phase               SI** log IAP   log K(298 K,   1 atm)

  Fe(OH)2.7Cl0.3   -9.95    -12.99   -3.04  Fe(OH)2.7Cl0.3
  Fe2(SO4)3      -136.32   -132.74    3.58  Fe2(SO4)3
  Fe3(OH)8        -40.80    -20.58   20.22  Fe3(OH)8
  Ferrihydrite    -15.50    -10.61    4.89  Fe(OH)3
  FeS(ppt)        -13.11    -17.02   -3.92  FeS
  Goethite        -11.11    -10.61    0.50  FeOOH
  Greigite        -50.32    -63.49  -13.18  Fe3S4
  Halite           -5.70     -4.11    1.58  NaCl
  Hematite        -17.22    -21.23   -4.01  Fe2O3
  Jarosite-H      -94.08   -106.18  -12.10  (H3O)Fe3(SO4)2(OH)6
  Jarosite-Na     -91.19   -102.39  -11.20  NaFe3(SO4)2(OH)6
  Lepidocrocite   -11.98    -10.61    1.37  FeOOH
  Mackinawite     -14.93    -10.08    4.85  FeS
  Maghemite       -27.61    -21.23    6.39  Fe2O3
  Magnetite       -24.31    -20.58    3.74  Fe3O4
  Melanterite     -34.05    -36.52   -2.47  FeSO4:7H2O
  Mirabilite      -28.47    -29.59   -1.11  Na2SO4:10H2O
  NaCl             15.89     -4.11  -20.00  NaCl
  NaNO3           -77.33    -97.33  -20.00  NaNO3
  O2(g)           -76.04      7.08   83.12  O2
  pe_fix            4.23      4.23    0.00  e-
  pH_fix           -6.00     -6.00    0.00  H+
  Pyrite          -14.40    -43.33  -28.93  FeS2
  Pyrrhotite      -13.82    -10.08    3.74  FeS
  Sulfur          -12.02    -14.13   -2.11  S
  Thenardite      -29.41    -29.58   -0.18  Na2SO4

**For a gas, SI = log10(fugacity). Fugacity = pressure * phi / 1 atm.
  For ideal gases, phi = 1.

Reaction step 8.

Using solution 1.	PURE WATER
Using pure phase assemblage 1.	
Using reaction 1.	

Reaction 1.	

	  1.000e-12 moles of the following reaction have been added:

	                 Relative
	Reactant            moles

	Fe1S3                1.00000

	                 Relative
	Element             moles
	Fe                   1.00000
	S                    3.00000

-------------------------------Phase assemblage--------------------------------

                                                      Moles in assemblage
Phase               SI  log IAP  log K(T, P)   Initial       Final       Delta

Greigite        -49.91   -63.09    -13.18    0.000e+00           0   0.000e+00
Mackinawite     -14.81    -9.96      4.85    0.000e+00           0   0.000e+00
NaNO3           -77.33   -97.33    -20.00    0.000e+00           0   0.000e+00
Pyrite          -14.22   -43.16    -28.93    0.000e+00           0   0.000e+00
Pyrrhotite      -13.71    -9.96      3.74    0.000e+00           0   0.000e+00
pH_fix           -6.00    -6.00      0.00
	 HCl                is reactant       9.986e+00   9.986e+00  -1.656e-12
pe_fix            4.23     4.23      0.00
	 O2                 is reactant       1.001e+01   1.001e+01   9.965e-13

-----------------------------Solution composition------------------------------

	Elements           Molality       Moles

	Cl                1.400e-02   1.400e-02
	Fe                8.001e-12   8.000e-12
	N                 7.001e-03   7.000e-03
	Na                7.001e-03   7.000e-03
	S                 2.400e-11   2.400e-11

----------------------------Description of solution----------------------------

                                       pH  =   6.000      Charge balance
                                       pe  =  -4.230      Adjusted to redox equilibrium
                        Activity of water  =   1.000
                 Ionic strength (mol/kgw)  =   1.400e-02
                       Mass of water (kg)  =   9.999e-01
                 Total alkalinity (eq/kg)  =   2.405e-06
                         Temperature (°C)  =  25.00
                  Electrical balance (eq)  =  -1.155e-10
 Percent error, 100*(Cat-|An|)/(Cat+|An|)  =  -0.00
                               Iterations  =   3
                                  Total H  = 1.110264e+02
                                  Total O  = 5.549922e+01

----------------------------Distribution of species----------------------------

                                               Log       Log       Log    mole V
   Species          Molality    Activity  Molality  Activity     Gamma    cm³/mol

   H+              1.108e-06   1.000e-06    -5.955    -6.000    -0.045      0.00
   OH-             1.135e-08   1.004e-08    -7.945    -7.998    -0.053     (0)  
   H2O             5.551e+01   9.995e-01     1.744    -0.000     0.000     18.07
Cl            1.400e-02
   Cl-             1.400e-02   1.237e-02    -1.854    -1.908    -0.054     (0)  
   FeCl+2          1.658e-29   1.041e-29   -28.780   -28.982    -0.202     (0)  
   FeCl2+          6.462e-31   5.753e-31   -30.190   -30.240    -0.051     (0)  
   FeCl3           7.091e-34   7.114e-34   -33.149   -33.148     0.001     (0)  
Fe(2)         8.001e-12
   Fe+2            7.999e-12   5.097e-12   -11.097   -11.293    -0.196     (0)  
   FeOH+           1.810e-15   1.611e-15   -14.742   -14.793    -0.051     (0)  
   Fe(OH)2         1.366e-20   1.371e-20   -19.865   -19.863     0.001     (0)  
   Fe(OH)3-        5.718e-25   5.090e-25   -24.243   -24.293    -0.051     (0)  
   Fe(HS)2         2.689e-26   2.698e-26   -25.570   -25.569     0.001     (0)  
   FeSO4           6.949e-35   6.972e-35   -34.158   -34.157     0.001     (0)  
   Fe(HS)3-        8.066e-36   7.159e-36   -35.093   -35.145    -0.052     (0)  
Fe(3)         6.779e-23
   Fe(OH)2+        6.680e-23   5.955e-23   -22.175   -22.225    -0.050     (0)  
   Fe(OH)3         6.971e-25   6.993e-25   -24.157   -24.155     0.001     (0)  
   FeOH+2          2.866e-25   1.799e-25   -24.543   -24.745    -0.202     (0)  
   Fe(OH)4-        7.841e-27   6.990e-27   -26.106   -26.156    -0.050     (0)  
   Fe+3            7.042e-29   2.788e-29   -28.152   -28.555    -0.402     (0)  
   FeCl+2          1.658e-29   1.041e-29   -28.780   -28.982    -0.202     (0)  
   FeCl2+          6.462e-31   5.753e-31   -30.190   -30.240    -0.051     (0)  
   FeCl3           7.091e-34   7.114e-34   -33.149   -33.148     0.001     (0)  
   Fe2(OH)2+4      0.000e+00   0.000e+00   -47.231   -48.060    -0.829     (0)  
   FeSO4+          0.000e+00   0.000e+00   -49.698   -49.749    -0.051     (0)  
   Fe3(OH)4+5      0.000e+00   0.000e+00   -66.669   -67.965    -1.295     (0)  
   Fe(SO4)2-       0.000e+00   0.000e+00   -73.311   -73.363    -0.052     (0)  
H(0)          4.070e-07
   H2              2.035e-07   2.042e-07    -6.691    -6.690     0.001     (0)  
N(-3)         7.001e-03
   NH4+            6.997e-03   6.165e-03    -2.155    -2.210    -0.055     (0)  
   NH3             3.502e-06   3.513e-06    -5.456    -5.454     0.001     (0)  
   NH4SO4-         6.862e-27   6.109e-27   -26.164   -26.214    -0.051     (0)  
N(3)          0.000e+00
   NO2-            0.000e+00   0.000e+00   -70.046   -70.097    -0.052     (0)  
N(5)          0.000e+00
   NO3-            0.000e+00   0.000e+00   -95.074   -95.128    -0.054     (0)  
Na            7.001e-03
   Na+             7.001e-03   6.223e-03    -2.155    -2.206    -0.051     (0)  
   NaSO4-          2.691e-27   2.399e-27   -26.570   -26.620    -0.050     (0)  
O(0)          0.000e+00
   O2              0.000e+00   0.000e+00   -79.002   -79.000     0.001     (0)  
S(-2)         2.400e-11
   H2S             2.124e-11   2.131e-11   -10.673   -10.671     0.001     (0)  
   HS-             2.754e-12   2.437e-12   -11.560   -11.613    -0.053     (0)  
   S5-2            9.980e-16   6.192e-16   -15.001   -15.208    -0.207     (0)  
   S4-2            5.823e-16   3.613e-16   -15.235   -15.442    -0.207     (0)  
   S6-2            5.166e-16   3.205e-16   -15.287   -15.494    -0.207     (0)  
   S-2             4.688e-19   2.943e-19   -18.329   -18.531    -0.202     (0)  
   S3-2            2.052e-19   1.273e-19   -18.688   -18.895    -0.207     (0)  
   S2-2            1.164e-20   7.225e-21   -19.934   -20.141    -0.207     (0)  
   Fe(HS)2         2.689e-26   2.698e-26   -25.570   -25.569     0.001     (0)  
   Fe(HS)3-        8.066e-36   7.159e-36   -35.093   -35.145    -0.052     (0)  
S(6)          1.342e-25
   SO4-2           1.246e-25   7.692e-26   -24.905   -25.114    -0.209     (0)  
   NH4SO4-         6.862e-27   6.109e-27   -26.164   -26.214    -0.051     (0)  
   NaSO4-          2.691e-27   2.399e-27   -26.570   -26.620    -0.050     (0)  
   HSO4-           8.401e-30   7.464e-30   -29.076   -29.127    -0.051     (0)  
   FeSO4           6.949e-35   6.972e-35   -34.158   -34.157     0.001     (0)  
   FeSO4+          0.000e+00   0.000e+00   -49.698   -49.749    -0.051     (0)  
   Fe(SO4)2-       0.000e+00   0.000e+00   -73.311   -73.363    -0.052     (0)  

------------------------------Saturation indices-------------------------------

  Phase               SI** log IAP   log K(298 K,   1 atm)

  Fe(OH)2.7Cl0.3   -9.89    -12.93   -3.04  Fe(OH)2.7Cl0.3
  Fe2(SO4)3      -136.03   -132.45    3.58  Fe2(SO4)3
  Fe3(OH)8        -40.63    -20.40   20.22  Fe3(OH)8
  Ferrihydrite    -15.45    -10.56    4.89  Fe(OH)3
  FeS(ppt)        -12.99    -16.91   -3.92  FeS
  Goethite        -11.06    -10.56    0.50  FeOOH
  Greigite        -49.91    -63.09  -13.18  Fe3S4
  Halite           -5.70     -4.11    1.58  NaCl
  Hematite        -17.10    -21.11   -4.01  Fe2O3
  Jarosite-H      -93.79   -105.89  -12.10  (H3O)Fe3(SO4)2(OH)6
  Jarosite-Na     -90.90   -102.10  -11.20  NaFe3(SO4)2(OH)6
  Lepidocrocite   -11.93    -10.56    1.37  FeOOH
  Mackinawite     -14.81     -9.96    4.85  FeS
  Maghemite       -27.50    -21.11    6.39  Fe2O3
  Magnetite       -24.14    -20.40    3.74  Fe3O4
  Melanterite     -33.94    -36.41   -2.47  FeSO4:7H2O
  Mirabilite      -28.41    -29.53   -1.11  Na2SO4:10H2O
  NaCl             15.89     -4.11  -20.00  NaCl
  NaNO3           -77.33    -97.33  -20.00  NaNO3
  O2(g)           -76.04      7.08   83.12  O2
  pe_fix            4.23      4.23    0.00  e-
  pH_fix           -6.00     -6.00    0.00  H+
  Pyrite          -14.22    -43.16  -28.93  FeS2
  Pyrrhotite      -13.71     -9.96    3.74  FeS
  Sulfur          -11.96    -14.07   -2.11  S
  Thenardite      -29.35    -29.53   -0.18  Na2SO4

**For a gas, SI = log10(fugacity). Fugacity = pressure * phi / 1 atm.
  For ideal gases, phi = 1.

Reaction step 9.

Using solution 1.	PURE WATER
Using pure phase assemblage 1.	
Using reaction 1.	

Reaction 1.	

	  1.000e-12 moles of the following reaction have been added:

	                 Relative
	Reactant            moles

	Fe1S3                1.00000

	                 Relative
	Element             moles
	Fe                   1.00000
	S                    3.00000

-------------------------------Phase assemblage--------------------------------

                                                      Moles in assemblage
Phase               SI  log IAP  log K(T, P)   Initial       Final       Delta

Greigite        -49.55   -62.73    -13.18    0.000e+00           0   0.000e+00
Mackinawite     -14.71    -9.86      4.85    0.000e+00           0   0.000e+00
NaNO3           -77.33   -97.33    -20.00    0.000e+00           0   0.000e+00
Pyrite          -14.07   -43.01    -28.93    0.000e+00           0   0.000e+00
Pyrrhotite      -13.60    -9.86      3.74    0.000e+00           0   0.000e+00
pH_fix           -6.00    -6.00      0.00
	 HCl                is reactant       9.986e+00   9.986e+00  -1.656e-12
pe_fix            4.23     4.23      0.00
	 O2                 is reactant       1.001e+01   1.001e+01   9.965e-13

-----------------------------Solution composition------------------------------

	Elements           Molality       Moles

	Cl                1.400e-02   1.400e-02
	Fe                9.001e-12   9.000e-12
	N                 7.001e-03   7.000e-03
	Na                7.001e-03   7.000e-03
	S                 2.700e-11   2.700e-11

----------------------------Description of solution----------------------------

                                       pH  =   6.000      Charge balance
                                       pe  =  -4.230      Adjusted to redox equilibrium
                        Activity of water  =   1.000
                 Ionic strength (mol/kgw)  =   1.400e-02
                       Mass of water (kg)  =   9.999e-01
                 Total alkalinity (eq/kg)  =   2.405e-06
                         Temperature (°C)  =  25.00
                  Electrical balance (eq)  =  -1.155e-10
 Percent error, 100*(Cat-|An|)/(Cat+|An|)  =  -0.00
                               Iterations  =   3
                                  Total H  = 1.110264e+02
                                  Total O  = 5.549922e+01

----------------------------Distribution of species----------------------------

                                               Log       Log       Log    mole V
   Species          Molality    Activity  Molality  Activity     Gamma    cm³/mol

   H+              1.108e-06   1.000e-06    -5.955    -6.000    -0.045      0.00
   OH-             1.135e-08   1.004e-08    -7.945    -7.998    -0.053     (0)  
   H2O             5.551e+01   9.995e-01     1.744    -0.000     0.000     18.07
Cl            1.400e-02
   Cl-             1.400e-02   1.237e-02    -1.854    -1.908    -0.054     (0)  
   FeCl+2          1.866e-29   1.171e-29   -28.729   -28.931    -0.202     (0)  
[...]
   Cl-             1.098e-02   9.828e-03    -1.959    -2.008    -0.048     (0)  
   FeCl+2          2.522e-24   1.657e-24   -23.598   -23.781    -0.182     (0)  
   FeCl2+          8.081e-26   7.276e-26   -25.093   -25.138    -0.046     (0)  
   FeCl3           7.133e-29   7.151e-29   -28.147   -28.146     0.001     (0)  
Fe(2)         4.430e-09
   Fe+2            4.427e-09   2.944e-09    -8.354    -8.531    -0.177     (0)  
   Fe(HS)2         2.866e-12   2.873e-12   -11.543   -11.542     0.001     (0)  
   Fe(HS)3-        3.645e-16   3.273e-16   -15.438   -15.485    -0.047     (0)  
   FeOH+           1.032e-16   9.291e-17   -15.986   -16.032    -0.046     (0)  
   Fe(OH)2         7.873e-26   7.893e-26   -25.104   -25.103     0.001     (0)  
   Fe(OH)3-        3.251e-34   2.927e-34   -33.488   -33.534    -0.046     (0)  
   FeSO4           0.000e+00   0.000e+00   -41.446   -41.445     0.001     (0)  
Fe(3)         2.122e-23
   Fe+3            1.301e-23   5.584e-24   -22.886   -23.253    -0.367     (0)  
   FeOH+2          5.476e-24   3.598e-24   -23.262   -23.444    -0.182     (0)  
   FeCl+2          2.522e-24   1.657e-24   -23.598   -23.781    -0.182     (0)  
   Fe(OH)2+        1.319e-25   1.189e-25   -24.880   -24.925    -0.045     (0)  
   FeCl2+          8.081e-26   7.276e-26   -25.093   -25.138    -0.046     (0)  
   FeCl3           7.133e-29   7.151e-29   -28.147   -28.146     0.001     (0)  
   Fe(OH)3         1.391e-31   1.394e-31   -30.857   -30.856     0.001     (0)  
   Fe(OH)4-        1.544e-37   1.392e-37   -36.811   -36.856    -0.045     (0)  
   Fe2(OH)2+4      0.000e+00   0.000e+00   -44.711   -45.458    -0.747     (0)  
   FeSO4+          0.000e+00   0.000e+00   -54.451   -54.497    -0.046     (0)  
   Fe3(OH)4+5      0.000e+00   0.000e+00   -66.895   -68.063    -1.168     (0)  
   Fe(SO4)2-       0.000e+00   0.000e+00   -88.114   -88.160    -0.047     (0)  
H(0)          3.388e-04
   H2              1.694e-04   1.698e-04    -3.771    -3.770     0.001     (0)  
O(0)          0.000e+00
   O2              0.000e+00   0.000e+00   -84.843   -84.842     0.001     (0)  
S(-2)         9.126e-02
   H2S             9.126e-02   9.149e-02    -1.040    -1.039     0.001     (0)  
   HS-             1.168e-06   1.046e-06    -5.933    -5.980    -0.048     (0)  
   Fe(HS)2         2.866e-12   2.873e-12   -11.543   -11.542     0.001     (0)  
   S5-2            4.088e-14   2.659e-14   -13.388   -13.575    -0.187     (0)  
   S4-2            2.385e-14   1.551e-14   -13.622   -13.809    -0.187     (0)  
   S6-2            2.116e-14   1.376e-14   -13.674   -13.861    -0.187     (0)  
   Fe(HS)3-        3.645e-16   3.273e-16   -15.438   -15.485    -0.047     (0)  
   S-2             1.924e-17   1.264e-17   -16.716   -16.898    -0.182     (0)  
   S3-2            8.405e-18   5.466e-18   -17.075   -17.262    -0.187     (0)  
   S2-2            4.770e-19   3.102e-19   -18.321   -18.508    -0.187     (0)  
S(6)          1.799e-35
   SO4-2           1.059e-35   6.860e-36   -34.975   -35.164    -0.188     (0)  
   HSO4-           7.406e-36   6.657e-36   -35.130   -35.177    -0.046     (0)  
   FeSO4           0.000e+00   0.000e+00   -41.446   -41.445     0.001     (0)  
   FeSO4+          0.000e+00   0.000e+00   -54.451   -54.497    -0.046     (0)  
   Fe(SO4)2-       0.000e+00   0.000e+00   -88.114   -88.160    -0.047     (0)  

------------------------------Saturation indices-------------------------------

  Phase               SI** log IAP   log K(298 K,   1 atm)

  Fe(OH)2.7Cl0.3  -15.42    -18.46   -3.04  Fe(OH)2.7Cl0.3
  Fe2(SO4)3      -155.58   -152.00    3.58  Fe2(SO4)3
  Fe3(OH)8        -59.27    -39.04   20.22  Fe3(OH)8
  Ferrihydrite    -22.15    -17.26    4.89  Fe(OH)3
  FeS(ppt)         -8.60    -12.51   -3.92  FeS
  Goethite        -17.75    -17.25    0.50  FeOOH
  Greigite        -26.89    -41.74  -14.85  Fe3S4
  Hematite        -30.50    -34.51   -4.01  Fe2O3
  Jarosite-H     -117.99   -130.09  -12.10  (H3O)Fe3(SO4)2(OH)6
  Lepidocrocite   -18.63    -17.25    1.37  FeOOH
  Mackinawite     -10.42     -5.57    4.85  FeS
  Maghemite       -40.89    -34.51    6.39  Fe2O3
  Magnetite       -42.78    -39.04    3.74  Fe3O4
  Melanterite     -41.23    -43.70   -2.47  FeSO4:7H2O
  O2(g)           -81.88      1.24   83.12  O2
  pe_fix            1.69      1.69    0.00  e-
  pH_fix           -2.00     -2.00    0.00  H+
  Pyrite           -0.00    -16.72  -16.72  FeS2
  Pyrrhotite       -9.31     -5.57    3.74  FeS
  Sulfur           -5.25     -7.36   -2.11  S

**For a gas, SI = log10(fugacity). Fugacity = pressure * phi / 1 atm.
  For ideal gases, phi = 1.

Reaction step 109.

Using solution 1.	PURE WATER
Using pure phase assemblage 1.	
Using reaction 1.	

Reaction 1.	

	  1.000e-02 moles of the following reaction have been added:

	                 Relative
	Reactant            moles

	Fe1S3                1.00000

	                 Relative
	Element             moles
	Fe                   1.00000
	S                    3.00000

-------------------------------Phase assemblage--------------------------------

                                                      Moles in assemblage
Phase               SI  log IAP  log K(T, P)   Initial       Final       Delta

Greigite          4.41     2.78     -1.63    0.000e+00           0   0.000e+00
Mackinawite     -10.47    -5.62      4.85    0.000e+00           0   0.000e+00
Pyrite            7.14     0.00     -7.14    9.111e-02   1.011e-01   1.000e-02
Pyrrhotite       -9.36    -5.62      3.74    0.000e+00           0   0.000e+00
pH_fix           -2.00    -2.00      0.00
	 HCl                is reactant       9.989e+00   9.989e+00   2.109e-06
pe_fix            1.69     1.69      0.00
	 O2                 is reactant       1.005e+01   1.005e+01   5.000e-03

-----------------------------Solution composition------------------------------

	Elements           Molality       Moles

	Cl                1.098e-02   1.096e-02
	Fe                3.596e-09   3.590e-09
	S                 1.013e-01   1.011e-01

----------------------------Description of solution----------------------------

                                       pH  =   2.000      Charge balance
                                       pe  =  -1.690      Adjusted to redox equilibrium
                        Activity of water  =   0.998
                 Ionic strength (mol/kgw)  =   1.099e-02
                       Mass of water (kg)  =   9.982e-01
                 Total alkalinity (eq/kg)  =  -1.098e-02
                         Temperature (°C)  =  25.00
                  Electrical balance (eq)  =   8.315e-13
 Percent error, 100*(Cat-|An|)/(Cat+|An|)  =   0.00
                               Iterations  =   3
                                  Total H  = 1.110234e+02
                                  Total O  = 5.540494e+01

----------------------------Distribution of species----------------------------

                                               Log       Log       Log    mole V
   Species          Molality    Activity  Molality  Activity     Gamma    cm³/mol

   H+              1.099e-02   1.000e-02    -1.959    -2.000    -0.041      0.00
   OH-             1.119e-12   1.003e-12   -11.951   -11.999    -0.048     (0)  
   H2O             5.551e+01   9.979e-01     1.744    -0.001     0.000     18.07
Cl            1.098e-02
   Cl-             1.098e-02   9.828e-03    -1.959    -2.008    -0.048     (0)  
   FeCl+2          2.047e-24   1.345e-24   -23.689   -23.871    -0.182     (0)  
   FeCl2+          6.559e-26   5.905e-26   -25.183   -25.229    -0.046     (0)  
   FeCl3           5.789e-29   5.804e-29   -28.237   -28.236     0.001     (0)  
Fe(2)         3.596e-09
   Fe+2            3.593e-09   2.389e-09    -8.444    -8.622    -0.177     (0)  
   Fe(HS)2         2.866e-12   2.873e-12   -11.543   -11.542     0.001     (0)  
   Fe(HS)3-        4.046e-16   3.633e-16   -15.393   -15.440    -0.047     (0)  
   FeOH+           8.375e-17   7.540e-17   -16.077   -16.123    -0.046     (0)  
   Fe(OH)2         6.388e-26   6.404e-26   -25.195   -25.194     0.001     (0)  
   Fe(OH)3-        2.637e-34   2.374e-34   -33.579   -33.624    -0.046     (0)  
   FeSO4           0.000e+00   0.000e+00   -41.491   -41.490     0.001     (0)  
Fe(3)         1.722e-23
   Fe+3            1.056e-23   4.532e-24   -22.976   -23.344    -0.367     (0)  
   FeOH+2          4.444e-24   2.920e-24   -23.352   -23.535    -0.182     (0)  
   FeCl+2          2.047e-24   1.345e-24   -23.689   -23.871    -0.182     (0)  
   Fe(OH)2+        1.070e-25   9.649e-26   -24.970   -25.016    -0.045     (0)  
   FeCl2+          6.559e-26   5.905e-26   -25.183   -25.229    -0.046     (0)  
   FeCl3           5.789e-29   5.804e-29   -28.237   -28.236     0.001     (0)  
   Fe(OH)3         1.128e-31   1.131e-31   -30.948   -30.946     0.001     (0)  
   Fe(OH)4-        1.252e-37   1.129e-37   -36.902   -36.947    -0.045     (0)  
   Fe2(OH)2+4      0.000e+00   0.000e+00   -44.892   -45.639    -0.747     (0)  
   FeSO4+          0.000e+00   0.000e+00   -54.497   -54.542    -0.046     (0)  
   Fe3(OH)4+5      0.000e+00   0.000e+00   -67.167   -68.335    -1.168     (0)  
   Fe(SO4)2-       0.000e+00   0.000e+00   -88.114   -88.161    -0.047     (0)  
H(0)          3.388e-04
   H2              1.694e-04   1.698e-04    -3.771    -3.770     0.001     (0)  
O(0)          0.000e+00
   O2              0.000e+00   0.000e+00   -84.843   -84.842     0.001     (0)  
S(-2)         1.013e-01
   H2S             1.013e-01   1.016e-01    -0.994    -0.993     0.001     (0)  
   HS-             1.296e-06   1.161e-06    -5.887    -5.935    -0.048     (0)  
   Fe(HS)2         2.866e-12   2.873e-12   -11.543   -11.542     0.001     (0)  
   S5-2            4.538e-14   2.951e-14   -13.343   -13.530    -0.187     (0)  
   S4-2            2.647e-14   1.722e-14   -13.577   -13.764    -0.187     (0)  
   S6-2            2.349e-14   1.528e-14   -13.629   -13.816    -0.187     (0)  
   Fe(HS)3-        4.046e-16   3.633e-16   -15.393   -15.440    -0.047     (0)  
   S-2             2.135e-17   1.403e-17   -16.671   -16.853    -0.182     (0)  
   S3-2            9.329e-18   6.067e-18   -17.030   -17.217    -0.187     (0)  
   S2-2            5.294e-19   3.444e-19   -18.276   -18.463    -0.187     (0)  
S(6)          1.996e-35
   SO4-2           1.174e-35   7.610e-36   -34.930   -35.119    -0.188     (0)  
   HSO4-           8.215e-36   7.384e-36   -35.085   -35.132    -0.046     (0)  
   FeSO4           0.000e+00   0.000e+00   -41.491   -41.490     0.001     (0)  
   FeSO4+          0.000e+00   0.000e+00   -54.497   -54.542    -0.046     (0)  
   Fe(SO4)2-       0.000e+00   0.000e+00   -88.114   -88.161    -0.047     (0)  

------------------------------Saturation indices-------------------------------

  Phase               SI** log IAP   log K(298 K,   1 atm)

  Fe(OH)2.7Cl0.3  -15.51    -18.55   -3.04  Fe(OH)2.7Cl0.3
  Fe2(SO4)3      -155.62   -152.04    3.58  Fe2(SO4)3
  Fe3(OH)8        -59.54    -39.32   20.22  Fe3(OH)8
  Ferrihydrite    -22.24    -17.35    4.89  Fe(OH)3
  FeS(ppt)         -8.64    -12.56   -3.92  FeS
  Goethite        -17.85    -17.35    0.50  FeOOH
  Greigite        -26.99    -41.84  -14.85  Fe3S4
  Hematite        -30.68    -34.69   -4.01  Fe2O3
  Jarosite-H     -118.17   -130.27  -12.10  (H3O)Fe3(SO4)2(OH)6
  Lepidocrocite   -18.72    -17.35    1.37  FeOOH
  Mackinawite     -10.47     -5.62    4.85  FeS
  Maghemite       -41.08    -34.69    6.39  Fe2O3
  Magnetite       -43.05    -39.31    3.74  Fe3O4
  Melanterite     -41.28    -43.75   -2.47  FeSO4:7H2O
  O2(g)           -81.88      1.24   83.12  O2
  pe_fix            1.69      1.69    0.00  e-
  pH_fix           -2.00     -2.00    0.00  H+
  Pyrite            0.00    -16.72  -16.72  FeS2
  Pyrrhotite       -9.36     -5.62    3.74  FeS
  Sulfur           -5.20     -7.31   -2.11  S

**For a gas, SI = log10(fugacity). Fugacity = pressure * phi / 1 atm.
  For ideal gases, phi = 1.

Reaction step 110.

Using solution 1.	PURE WATER
Using pure phase assemblage 1.	
Using reaction 1.	

Reaction 1.	

	  1.000e-02 moles of the following reaction have been added:

	                 Relative
	Reactant            moles

	Fe1S3                1.00000

	                 Relative
	Element             moles
	Fe                   1.00000
	S                    3.00000

-------------------------------Phase assemblage--------------------------------

                                                      Moles in assemblage
Phase               SI  log IAP  log K(T, P)   Initial       Final       Delta

Greigite          4.45     2.82     -1.63    0.000e+00           0   0.000e+00
Mackinawite     -10.51    -5.66      4.85    0.000e+00           0   0.000e+00
Pyrite            7.14     0.00     -7.14    1.011e-01   1.111e-01   1.000e-02
Pyrrhotite       -9.40    -5.66      3.74    0.000e+00           0   0.000e+00
pH_fix           -2.00    -2.00      0.00
	 HCl                is reactant       9.989e+00   9.989e+00   2.108e-06
pe_fix            1.69     1.69      0.00
	 O2                 is reactant       1.005e+01   1.006e+01   5.000e-03

-----------------------------Solution composition------------------------------

	Elements           Molality       Moles

	Cl                1.098e-02   1.096e-02
	Fe                2.978e-09   2.972e-09
	S                 1.113e-01   1.111e-01

----------------------------Description of solution----------------------------

                                       pH  =   2.000      Charge balance
                                       pe  =  -1.690      Adjusted to redox equilibrium
                        Activity of water  =   0.998
                 Ionic strength (mol/kgw)  =   1.099e-02
                       Mass of water (kg)  =   9.980e-01
                 Total alkalinity (eq/kg)  =  -1.098e-02
                         Temperature (°C)  =  25.00
                  Electrical balance (eq)  =   8.324e-13
 Percent error, 100*(Cat-|An|)/(Cat+|An|)  =   0.00
                               Iterations  =   3
                                  Total H  = 1.110234e+02
                                  Total O  = 5.539494e+01

----------------------------Distribution of species----------------------------

                                               Log       Log       Log    mole V
   Species          Molality    Activity  Molality  Activity     Gamma    cm³/mol

   H+              1.099e-02   1.000e-02    -1.959    -2.000    -0.041      0.00
   OH-             1.119e-12   1.002e-12   -11.951   -11.999    -0.048     (0)  
   H2O             5.551e+01   9.977e-01     1.744    -0.001     0.000     18.07
Cl            1.098e-02
   Cl-             1.098e-02   9.828e-03    -1.959    -2.008    -0.048     (0)  
   FeCl+2          1.695e-24   1.113e-24   -23.771   -23.953    -0.182     (0)  
   FeCl2+          5.430e-26   4.888e-26   -25.265   -25.311    -0.046     (0)  
   FeCl3           4.792e-29   4.804e-29   -28.319   -28.318     0.001     (0)  
Fe(2)         2.978e-09
   Fe+2            2.975e-09   1.978e-09    -8.527    -8.704    -0.177     (0)  
   Fe(HS)2         2.866e-12   2.873e-12   -11.543   -11.542     0.001     (0)  
   Fe(HS)3-        4.447e-16   3.993e-16   -15.352   -15.399    -0.047     (0)  
   FeOH+           6.932e-17   6.241e-17   -16.159   -16.205    -0.046     (0)  
   Fe(OH)2         5.286e-26   5.300e-26   -25.277   -25.276     0.001     (0)  
   Fe(OH)3-        2.182e-34   1.965e-34   -33.661   -33.707    -0.046     (0)  
   FeSO4           0.000e+00   0.000e+00   -41.533   -41.532     0.001     (0)  
Fe(3)         1.426e-23
   Fe+3            8.740e-24   3.752e-24   -23.058   -23.426    -0.367     (0)  
   FeOH+2          3.678e-24   2.417e-24   -23.434   -23.617    -0.182     (0)  
   FeCl+2          1.695e-24   1.113e-24   -23.771   -23.953    -0.182     (0)  
   Fe(OH)2+        8.858e-26   7.985e-26   -25.053   -25.098    -0.045     (0)  
   FeCl2+          5.430e-26   4.888e-26   -25.265   -25.311    -0.046     (0)  
   FeCl3           4.792e-29   4.804e-29   -28.319   -28.318     0.001     (0)  
   Fe(OH)3         9.336e-32   9.360e-32   -31.030   -31.029     0.001     (0)  
   Fe(OH)4-        1.036e-37   9.338e-38   -36.985   -37.030    -0.045     (0)  
   Fe2(OH)2+4      0.000e+00   0.000e+00   -45.056   -45.804    -0.747     (0)  
   FeSO4+          0.000e+00   0.000e+00   -54.538   -54.584    -0.046     (0)  
   Fe3(OH)4+5      0.000e+00   0.000e+00   -67.414   -68.581    -1.168     (0)  
   Fe(SO4)2-       0.000e+00   0.000e+00   -88.115   -88.162    -0.047     (0)  
H(0)          3.388e-04
   H2              1.694e-04   1.698e-04    -3.771    -3.770     0.001     (0)  
O(0)          0.000e+00
   O2              0.000e+00   0.000e+00   -84.843   -84.842     0.001     (0)  
S(-2)         1.113e-01
   H2S             1.113e-01   1.116e-01    -0.953    -0.952     0.001     (0)  
   HS-             1.425e-06   1.277e-06    -5.846    -5.894    -0.048     (0)  
   Fe(HS)2         2.866e-12   2.873e-12   -11.543   -11.542     0.001     (0)  
   S5-2            4.987e-14   3.244e-14   -13.302   -13.489    -0.187     (0)  
   S4-2            2.910e-14   1.893e-14   -13.536   -13.723    -0.187     (0)  
   S6-2            2.581e-14   1.679e-14   -13.588   -13.775    -0.187     (0)  
   Fe(HS)3-        4.447e-16   3.993e-16   -15.352   -15.399    -0.047     (0)  
   S-2             2.347e-17   1.542e-17   -16.630   -16.812    -0.182     (0)  
   S3-2            1.025e-17   6.669e-18   -16.989   -17.176    -0.187     (0)  
   S2-2            5.819e-19   3.785e-19   -18.235   -18.422    -0.187     (0)  
S(6)          2.192e-35
   SO4-2           1.290e-35   8.358e-36   -34.890   -35.078    -0.188     (0)  
   HSO4-           9.022e-36   8.110e-36   -35.045   -35.091    -0.046     (0)  
   FeSO4           0.000e+00   0.000e+00   -41.533   -41.532     0.001     (0)  
   FeSO4+          0.000e+00   0.000e+00   -54.538   -54.584    -0.046     (0)  
   Fe(SO4)2-       0.000e+00   0.000e+00   -88.115   -88.162    -0.047     (0)  

------------------------------Saturation indices-------------------------------

  Phase               SI** log IAP   log K(298 K,   1 atm)

  Fe(OH)2.7Cl0.3  -15.59    -18.63   -3.04  Fe(OH)2.7Cl0.3
  Fe2(SO4)3      -155.67   -152.09    3.58  Fe2(SO4)3
  Fe3(OH)8        -59.79    -39.56   20.22  Fe3(OH)8
  Ferrihydrite    -22.32    -17.43    4.89  Fe(OH)3
  FeS(ppt)         -8.68    -12.60   -3.92  FeS
  Goethite        -17.93    -17.43    0.50  FeOOH
  Greigite        -27.07    -41.92  -14.85  Fe3S4
  Hematite        -30.85    -34.85   -4.01  Fe2O3
  Jarosite-H     -118.34   -130.44  -12.10  (H3O)Fe3(SO4)2(OH)6
  Lepidocrocite   -18.80    -17.43    1.37  FeOOH
  Mackinawite     -10.51     -5.66    4.85  FeS
  Maghemite       -41.24    -34.85    6.39  Fe2O3
  Magnetite       -43.30    -39.56    3.74  Fe3O4
  Melanterite     -41.32    -43.79   -2.47  FeSO4:7H2O
  O2(g)           -81.88      1.24   83.12  O2
  pe_fix            1.69      1.69    0.00  e-
  pH_fix           -2.00     -2.00    0.00  H+
  Pyrite           -0.00    -16.72  -16.72  FeS2
  Pyrrhotite       -9.40     -5.66    3.74  FeS
  Sulfur           -5.16     -7.27   -2.11  S

**For a gas, SI = log10(fugacity). Fugacity = pressure * phi / 1 atm.
  For ideal gases, phi = 1.

------------------
End of simulation.
------------------

------------------------------------
Reading input data for simulation 7.
------------------------------------

-------------------------------
End of Run after 0.742 Seconds.
-------------------------------

