   Input file: C:\Users\jt2020\OneDrive - Imperial College London\Data\Thermodynamics\Thermodynamics\Phreeq\Reaction Progress\Supplementary material\Buffered models\H2S\H2S fixed conditions Fe dominant.pqi
  Output file: C:\Users\jt2020\OneDrive - Imperial College London\Data\Thermodynamics\Thermodynamics\Phreeq\Reaction Progress\Supplementary material\Buffered models\H2S\H2S fixed conditions Fe dominant.pqo
Database file: C:\Users\jt2020\OneDrive - Imperial College London\Data\Thermodynamics\Thermodynamics\Phreeq\Reaction Progress\All models with pyrrhotite\Database\llnlpyrrminteq.dat

------------------
Reading data base.
------------------

	SOLUTION_MASTER_SPECIES
	SOLUTION_SPECIES
	SOLUTION_SPECIES
	PHASES
	SURFACE_MASTER_SPECIES
	SURFACE_SPECIES
	END
------------------------------------
Reading input data for simulation 1.
------------------------------------

	DATABASE C:\Users\jt2020\OneDrive - Imperial College London\Data\Thermodynamics\Thermodynamics\Phreeq\Reaction Progress\All models with pyrrhotite\Database\llnlpyrrminteq.dat
	TITLE  H2S fixed conditions Fe dominated 250mV
	SOLUTION 1  PURE WATER
	            pH    6 charge
	          temp   25.0
	           pe     -4.23       #-250 mV 
	PHASES
	       pH_fix
	                H + = H +
	                log_k = 0.0
	       pe_fix
	                e- = e-
	                log_k 0.0
	Mackinawite
	    FeS + 2H+ = Fe+2 + H2S
	    log_k     4.850
	    delta_h        -8.901 kcal
	Pyrrhotite
	    FeS + 2H+ = Fe+2 + H2S
	    log_k     3.74177
	    delta_h        -7.977 kcal
	Greigite
	    Fe3S4 + 8H+ = 2Fe+3 + Fe+2 + 4H2S
	    log_k     -13.17851821
	    delta_h        20.9195763 kcal
	Pyrite
	    FeS2 + 4H+ + Fe+2 = 2Fe+3 + 2H2S
	    log_k     -28.93469201
	    delta_h        20.7091683 kcal
	NaNO3
	    NaNO3 = Na+ + NO3-
	    log_K -20
	END
-----
TITLE
-----

  H2S fixed conditions Fe dominated 250mV

-------------------------------------------
Beginning of initial solution calculations.
-------------------------------------------

Initial solution 1.	PURE WATER

-----------------------------Solution composition------------------------------

	Elements           Molality       Moles

	Pure water     

----------------------------Description of solution----------------------------

                                       pH  =   6.999      Charge balance
                                       pe  =  -4.230    
                        Activity of water  =   1.000
                 Ionic strength (mol/kgw)  =   1.003e-07
                       Mass of water (kg)  =   1.000e+00
                 Total alkalinity (eq/kg)  =   4.300e-16
                         Temperature (°C)  =  25.00
                  Electrical balance (eq)  =  -4.300e-16
 Percent error, 100*(Cat-|An|)/(Cat+|An|)  =  -0.00
                               Iterations  =   5
                                  Total H  = 1.110124e+02
                                  Total O  = 5.550622e+01

----------------------------Distribution of species----------------------------

                                               Log       Log       Log    mole V
   Species          Molality    Activity  Molality  Activity     Gamma    cm³/mol

   OH-             1.003e-07   1.002e-07    -6.999    -6.999    -0.000     (0)  
   H+              1.003e-07   1.002e-07    -6.999    -6.999    -0.000      0.00
   H2O             5.551e+01   1.000e+00     1.744    -0.000     0.000     18.07
H(0)          4.102e-09
   H2              2.051e-09   2.051e-09    -8.688    -8.688     0.000     (0)  
O(0)          0.000e+00
   O2              0.000e+00   0.000e+00   -75.004   -75.004     0.000     (0)  

------------------------------Saturation indices-------------------------------

  Phase               SI** log IAP   log K(298 K,   1 atm)

  O2(g)           -72.04     11.08   83.12  O2
  pe_fix            4.23      4.23    0.00  e-
  pH_fix           -7.00     -7.00    0.00  H+

**For a gas, SI = log10(fugacity). Fugacity = pressure * phi / 1 atm.
  For ideal gases, phi = 1.

------------------
End of simulation.
------------------

------------------------------------
Reading input data for simulation 2.
------------------------------------

	INCREMENTAL_REACTIONS
	REACTION
	Fe3S1 1
	10*1e-12 10*1e-11 10*1e-10 10*1e-9 10*1e-8 10*1e-7 10*1e-6 10*1e-5 10*1e-4  10*1e-3  10*1e-2 mol
	USE solution 1
	EQUILIBRIUM_PHASES 1
	        Mackinawite     0.0     0.0
	        Greigite        0.0     0.0
	        Pyrite          0.0     0.0 
	        Pyrrhotite      0.0     0.0
	        pH_fix          -6      HCl       10.0   
	        pe_fix          4.23    O2(g)     10
	USER_GRAPH 1 Simulation 6
	    -headings               Pyrite Greigite Mackinawite Pyrrhotite
	    -axis_titles            "Fe and S added, Log moles" "Mineral, moles"
	    -chart_title            "Iron dominant system with H2S as the oxidant"
	    -axis_scale sy_axis     auto auto auto auto log
	    -initial_solutions      false
	    -connect_simulations    false
	    -axis_scale y_axis      auto auto auto auto Log
	    -axis_scale sy_axis	    auto auto auto auto Log
	    -plot_concentration_vs  x
	  -start
	 5 PUT(GET(1) + RXN, 1)
	  20 PLOT_XY log10(GET(1)), EQUI("Pyrite") color = Green, line_w = 0,   	symbol = Plus, symbol_size = 5, y_axis = 2
	  30 PLOT_XY log10(GET(1)), EQUI("Greigite") color = Blue, line_w = 0,   	symbol = Plus, symbol_size = 5, y_axis = 2
	  40 PLOT_XY log10(GET(1)), EQUI("Mackinawite") color = Cyan, line_w = 0,   	symbol = Plus, symbol_size = 5, y_axis = 2
	  50 PLOT_XY log10(GET(1)), EQUI("Pyrrhotite") color = Red, line_w = 0,   	symbol = Plus, symbol_size = 5, y_axis = 2
	  -end
	    -active                 true
	SELECTED_OUTPUT
	    file                 H2S Fe dominated 250mV pH 6.csv
	    saturation_indices   Mackinawite  Greigite  Pyrite Pyrrhotite
	    reaction             
	    totals               Fe S
	    equilibrium_phases   Mackinawite  Greigite  Pyrite Pyrrhotite
	END
-----------------------------------------
Beginning of batch-reaction calculations.
-----------------------------------------

Reaction step 1.

Using solution 1.	PURE WATER
Using pure phase assemblage 1.	
Using reaction 1.	

Reaction 1.	

	  1.000e-12 moles of the following reaction have been added:

	                 Relative
	Reactant            moles

	Fe3S1                1.00000

	                 Relative
	Element             moles
	Fe                   3.00000
	S                    1.00000

-------------------------------Phase assemblage--------------------------------

                                                      Moles in assemblage
Phase               SI  log IAP  log K(T, P)   Initial       Final       Delta

Greigite        -56.11   -69.29    -13.18    0.000e+00           0   0.000e+00
Mackinawite     -16.42   -11.57      4.85    0.000e+00           0   0.000e+00
Pyrite          -17.21   -46.14    -28.93    0.000e+00           0   0.000e+00
Pyrrhotite      -15.31   -11.57      3.74    0.000e+00           0   0.000e+00
pH_fix           -6.00    -6.00      0.00
	 HCl                is reactant       1.000e+01   1.000e+01  -9.911e-07
pe_fix            4.23     4.23      0.00
	 O2                 is reactant       1.000e+01   1.000e+01   1.011e-07

-----------------------------Solution composition------------------------------

	Elements           Molality       Moles

	Cl                9.911e-07   9.911e-07
	Fe                3.000e-12   3.000e-12
	S                 1.000e-12   1.000e-12

----------------------------Description of solution----------------------------

                                       pH  =   6.000      Charge balance
                                       pe  =  -4.230      Adjusted to redox equilibrium
                        Activity of water  =   1.000
                 Ionic strength (mol/kgw)  =   1.001e-06
                       Mass of water (kg)  =   1.000e+00
                 Total alkalinity (eq/kg)  =  -9.911e-07
                         Temperature (°C)  =  25.00
                  Electrical balance (eq)  =  -5.236e-16
 Percent error, 100*(Cat-|An|)/(Cat+|An|)  =  -0.00
                               Iterations  =   9
                                  Total H  = 1.110124e+02
                                  Total O  = 5.550622e+01

----------------------------Distribution of species----------------------------

                                               Log       Log       Log    mole V
   Species          Molality    Activity  Molality  Activity     Gamma    cm³/mol

   H+              1.001e-06   1.000e-06    -5.999    -6.000    -0.001      0.00
   OH-             1.006e-08   1.005e-08    -7.997    -7.998    -0.001     (0)  
   H2O             5.551e+01   1.000e+00     1.744    -0.000     0.000     18.07
Cl            9.911e-07
   Cl-             9.911e-07   9.900e-07    -6.004    -6.004    -0.001     (0)  
   FeCl+2          4.905e-34   4.882e-34   -33.309   -33.311    -0.002     (0)  
   FeCl2+          2.161e-39   2.159e-39   -38.665   -38.666    -0.001     (0)  
   FeCl3           0.000e+00   0.000e+00   -45.670   -45.670     0.000     (0)  
Fe(2)         3.000e-12
   Fe+2            2.999e-12   2.985e-12   -11.523   -11.525    -0.002     (0)  
   FeOH+           9.451e-16   9.439e-16   -15.025   -15.025    -0.001     (0)  
   Fe(OH)2         8.034e-21   8.034e-21   -20.095   -20.095     0.000     (0)  
   Fe(OH)3-        2.989e-25   2.985e-25   -24.525   -24.525    -0.001     (0)  
   Fe(HS)2         2.800e-29   2.800e-29   -28.553   -28.553     0.000     (0)  
   FeSO4           1.722e-36   1.722e-36   -35.764   -35.764     0.000     (0)  
   Fe(HS)3-        3.132e-40   3.128e-40   -39.504   -39.505    -0.001     (0)  
Fe(3)         3.547e-23
   Fe(OH)2+        3.495e-23   3.491e-23   -22.457   -22.457    -0.001     (0)  
   Fe(OH)3         4.102e-25   4.102e-25   -24.387   -24.387     0.000     (0)  
   FeOH+2          1.059e-25   1.054e-25   -24.975   -24.977    -0.002     (0)  
   Fe(OH)4-        4.106e-27   4.102e-27   -26.387   -26.387    -0.001     (0)  
   Fe+3            1.650e-29   1.633e-29   -28.782   -28.787    -0.005     (0)  
   FeCl+2          4.905e-34   4.882e-34   -33.309   -33.311    -0.002     (0)  
   FeCl2+          2.161e-39   2.159e-39   -38.665   -38.666    -0.001     (0)  
   FeCl3           0.000e+00   0.000e+00   -45.670   -45.670     0.000     (0)  
   Fe2(OH)2+4      0.000e+00   0.000e+00   -48.516   -48.524    -0.008     (0)  
   FeSO4+          0.000e+00   0.000e+00   -51.355   -51.356    -0.001     (0)  
   Fe3(OH)4+5      0.000e+00   0.000e+00   -68.648   -68.661    -0.013     (0)  
   Fe(SO4)2-       0.000e+00   0.000e+00   -76.344   -76.345    -0.001     (0)  
H(0)          4.083e-07
   H2              2.042e-07   2.042e-07    -6.690    -6.690     0.000     (0)  
O(0)          0.000e+00
   O2              0.000e+00   0.000e+00   -79.000   -79.000     0.000     (0)  
S(-2)         1.000e-12
   H2S             8.970e-13   8.970e-13   -12.047   -12.047     0.000     (0)  
   HS-             1.027e-13   1.026e-13   -12.988   -12.989    -0.001     (0)  
   S5-2            2.619e-17   2.607e-17   -16.582   -16.584    -0.002     (0)  
   S4-2            1.528e-17   1.521e-17   -16.816   -16.818    -0.002     (0)  
   S6-2            1.356e-17   1.349e-17   -16.868   -16.870    -0.002     (0)  
   S-2             1.245e-20   1.239e-20   -19.905   -19.907    -0.002     (0)  
   S3-2            5.385e-21   5.359e-21   -20.269   -20.271    -0.002     (0)  
   S2-2            3.056e-22   3.042e-22   -21.515   -21.517    -0.002     (0)  
   Fe(HS)2         2.800e-29   2.800e-29   -28.553   -28.553     0.000     (0)  
   Fe(HS)3-        3.132e-40   3.128e-40   -39.504   -39.505    -0.001     (0)  
S(6)          3.260e-27
   SO4-2           3.260e-27   3.244e-27   -26.487   -26.489    -0.002     (0)  
   HSO4-           3.152e-31   3.148e-31   -30.501   -30.502    -0.001     (0)  
   FeSO4           1.722e-36   1.722e-36   -35.764   -35.764     0.000     (0)  
   FeSO4+          0.000e+00   0.000e+00   -51.355   -51.356    -0.001     (0)  
   Fe(SO4)2-       0.000e+00   0.000e+00   -76.344   -76.345    -0.001     (0)  

------------------------------Saturation indices-------------------------------

  Phase               SI** log IAP   log K(298 K,   1 atm)

  Fe(OH)2.7Cl0.3  -11.35    -14.39   -3.04  Fe(OH)2.7Cl0.3
  Fe2(SO4)3      -140.62   -137.04    3.58  Fe2(SO4)3
  Fe3(OH)8        -41.32    -21.10   20.22  Fe3(OH)8
  Ferrihydrite    -15.68    -10.79    4.89  Fe(OH)3
  FeS(ppt)        -14.60    -18.51   -3.92  FeS
  Goethite        -11.29    -10.79    0.50  FeOOH
  Greigite        -56.11    -69.29  -13.18  Fe3S4
  Hematite        -17.57    -21.57   -4.01  Fe2O3
  Jarosite-H      -97.24   -109.34  -12.10  (H3O)Fe3(SO4)2(OH)6
  Lepidocrocite   -12.16    -10.79    1.37  FeOOH
  Mackinawite     -16.42    -11.57    4.85  FeS
  Maghemite       -27.96    -21.57    6.39  Fe2O3
  Magnetite       -24.84    -21.10    3.74  Fe3O4
  Melanterite     -35.54    -38.01   -2.47  FeSO4:7H2O
  O2(g)           -76.04      7.08   83.12  O2
  pe_fix            4.23      4.23    0.00  e-
  pH_fix           -6.00     -6.00    0.00  H+
  Pyrite          -17.21    -46.14  -28.93  FeS2
  Pyrrhotite      -15.31    -11.57    3.74  FeS
  Sulfur          -13.34    -15.45   -2.11  S

**For a gas, SI = log10(fugacity). Fugacity = pressure * phi / 1 atm.
  For ideal gases, phi = 1.

Reaction step 2.

Using solution 1.	PURE WATER
Using pure phase assemblage 1.	
Using reaction 1.	

Reaction 1.	

	  1.000e-12 moles of the following reaction have been added:

	                 Relative
	Reactant            moles

	Fe3S1                1.00000

	                 Relative
	Element             moles
	Fe                   3.00000
	S                    1.00000

-------------------------------Phase assemblage--------------------------------

                                                      Moles in assemblage
Phase               SI  log IAP  log K(T, P)   Initial       Final       Delta

Greigite        -54.00   -67.18    -13.18    0.000e+00           0   0.000e+00
Mackinawite     -15.82   -10.97      4.85    0.000e+00           0   0.000e+00
Pyrite          -16.31   -45.24    -28.93    0.000e+00           0   0.000e+00
Pyrrhotite      -14.71   -10.97      3.74    0.000e+00           0   0.000e+00
pH_fix           -6.00    -6.00      0.00
	 HCl                is reactant       1.000e+01   1.000e+01  -5.901e-12
pe_fix            4.23     4.23      0.00
	 O2                 is reactant       1.000e+01   1.000e+01  -1.002e-12

-----------------------------Solution composition------------------------------

	Elements           Molality       Moles

	Cl                9.911e-07   9.911e-07
	Fe                6.000e-12   6.000e-12
	S                 2.000e-12   2.000e-12

----------------------------Description of solution----------------------------

                                       pH  =   6.000      Charge balance
                                       pe  =  -4.230      Adjusted to redox equilibrium
                        Activity of water  =   1.000
                 Ionic strength (mol/kgw)  =   1.001e-06
                       Mass of water (kg)  =   1.000e+00
                 Total alkalinity (eq/kg)  =  -9.911e-07
                         Temperature (°C)  =  25.00
                  Electrical balance (eq)  =  -5.236e-16
 Percent error, 100*(Cat-|An|)/(Cat+|An|)  =  -0.00
                               Iterations  =   5
                                  Total H  = 1.110124e+02
                                  Total O  = 5.550622e+01

----------------------------Distribution of species----------------------------

                                               Log       Log       Log    mole V
   Species          Molality    Activity  Molality  Activity     Gamma    cm³/mol

   H+              1.001e-06   1.000e-06    -5.999    -6.000    -0.001      0.00
   OH-             1.006e-08   1.005e-08    -7.997    -7.998    -0.001     (0)  
   H2O             5.551e+01   1.000e+00     1.744    -0.000     0.000     18.07
Cl            9.911e-07
   Cl-             9.911e-07   9.900e-07    -6.004    -6.004    -0.001     (0)  
   FeCl+2          9.809e-34   9.763e-34   -33.008   -33.010    -0.002     (0)  
   FeCl2+          4.322e-39   4.317e-39   -38.364   -38.365    -0.001     (0)  
   FeCl3           0.000e+00   0.000e+00   -45.369   -45.369     0.000     (0)  
Fe(2)         6.000e-12
   Fe+2            5.998e-12   5.970e-12   -11.222   -11.224    -0.002     (0)  
   FeOH+           1.890e-15   1.888e-15   -14.724   -14.724    -0.001     (0)  
   Fe(OH)2         1.607e-20   1.607e-20   -19.794   -19.794     0.000     (0)  
   Fe(OH)3-        5.977e-25   5.970e-25   -24.224   -24.224    -0.001     (0)  
   Fe(HS)2         2.240e-28   2.240e-28   -27.650   -27.650     0.000     (0)  
   FeSO4           6.889e-36   6.889e-36   -35.162   -35.162     0.000     (0)  
   Fe(HS)3-        5.011e-39   5.005e-39   -38.300   -38.301    -0.001     (0)  
Fe(3)         7.094e-23
   Fe(OH)2+        6.990e-23   6.982e-23   -22.156   -22.156    -0.001     (0)  
   Fe(OH)3         8.203e-25   8.203e-25   -24.086   -24.086     0.000     (0)  
   FeOH+2          2.118e-25   2.109e-25   -24.674   -24.676    -0.002     (0)  
   Fe(OH)4-        8.213e-27   8.203e-27   -26.086   -26.086    -0.001     (0)  
   Fe+3            3.300e-29   3.266e-29   -28.481   -28.486    -0.005     (0)  
   FeCl+2          9.809e-34   9.763e-34   -33.008   -33.010    -0.002     (0)  
   FeCl2+          4.322e-39   4.317e-39   -38.364   -38.365    -0.001     (0)  
   FeCl3           0.000e+00   0.000e+00   -45.369   -45.369     0.000     (0)  
   Fe2(OH)2+4      0.000e+00   0.000e+00   -47.914   -47.922    -0.008     (0)  
   FeSO4+          0.000e+00   0.000e+00   -50.753   -50.754    -0.001     (0)  
   Fe3(OH)4+5      0.000e+00   0.000e+00   -67.745   -67.758    -0.013     (0)  
   Fe(SO4)2-       0.000e+00   0.000e+00   -75.441   -75.442    -0.001     (0)  
H(0)          4.083e-07
   H2              2.042e-07   2.042e-07    -6.690    -6.690     0.000     (0)  
O(0)          0.000e+00
   O2              0.000e+00   0.000e+00   -79.000   -79.000     0.000     (0)  
S(-2)         2.000e-12
   H2S             1.794e-12   1.794e-12   -11.746   -11.746     0.000     (0)  
   HS-             2.054e-13   2.052e-13   -12.687   -12.688    -0.001     (0)  
   S5-2            5.238e-17   5.214e-17   -16.281   -16.283    -0.002     (0)  
   S4-2            3.056e-17   3.042e-17   -16.515   -16.517    -0.002     (0)  
   S6-2            2.711e-17   2.699e-17   -16.567   -16.569    -0.002     (0)  
   S-2             2.490e-20   2.478e-20   -19.604   -19.606    -0.002     (0)  
   S3-2            1.077e-20   1.072e-20   -19.968   -19.970    -0.002     (0)  
   S2-2            6.112e-22   6.083e-22   -21.214   -21.216    -0.002     (0)  
   Fe(HS)2         2.240e-28   2.240e-28   -27.650   -27.650     0.000     (0)  
   Fe(HS)3-        5.011e-39   5.005e-39   -38.300   -38.301    -0.001     (0)  
S(6)          6.520e-27
   SO4-2           6.519e-27   6.489e-27   -26.186   -26.188    -0.002     (0)  
   HSO4-           6.304e-31   6.296e-31   -30.200   -30.201    -0.001     (0)  
   FeSO4           6.889e-36   6.889e-36   -35.162   -35.162     0.000     (0)  
   FeSO4+          0.000e+00   0.000e+00   -50.753   -50.754    -0.001     (0)  
   Fe(SO4)2-       0.000e+00   0.000e+00   -75.441   -75.442    -0.001     (0)  

------------------------------Saturation indices-------------------------------

  Phase               SI** log IAP   log K(298 K,   1 atm)

  Fe(OH)2.7Cl0.3  -11.05    -14.09   -3.04  Fe(OH)2.7Cl0.3
  Fe2(SO4)3      -139.12   -135.54    3.58  Fe2(SO4)3
  Fe3(OH)8        -40.42    -20.20   20.22  Fe3(OH)8
  Ferrihydrite    -15.38    -10.49    4.89  Fe(OH)3
  FeS(ppt)        -14.00    -17.91   -3.92  FeS
  Goethite        -10.99    -10.49    0.50  FeOOH
  Greigite        -54.00    -67.18  -13.18  Fe3S4
  Hematite        -16.96    -20.97   -4.01  Fe2O3
  Jarosite-H      -95.73   -107.83  -12.10  (H3O)Fe3(SO4)2(OH)6
  Lepidocrocite   -11.86    -10.49    1.37  FeOOH
  Mackinawite     -15.82    -10.97    4.85  FeS
  Maghemite       -27.36    -20.97    6.39  Fe2O3
  Magnetite       -23.93    -20.20    3.74  Fe3O4
  Melanterite     -34.94    -37.41   -2.47  FeSO4:7H2O
  O2(g)           -76.04      7.08   83.12  O2
  pe_fix            4.23      4.23    0.00  e-
  pH_fix           -6.00     -6.00    0.00  H+
  Pyrite          -16.31    -45.24  -28.93  FeS2
  Pyrrhotite      -14.71    -10.97    3.74  FeS
  Sulfur          -13.04    -15.15   -2.11  S

**For a gas, SI = log10(fugacity). Fugacity = pressure * phi / 1 atm.
  For ideal gases, phi = 1.

Reaction step 3.

Using solution 1.	PURE WATER
Using pure phase assemblage 1.	
Using reaction 1.	

Reaction 1.	

	  1.000e-12 moles of the following reaction have been added:

	                 Relative
	Reactant            moles

	Fe3S1                1.00000

	                 Relative
	Element             moles
	Fe                   3.00000
	S                    1.00000

-------------------------------Phase assemblage--------------------------------

                                                      Moles in assemblage
Phase               SI  log IAP  log K(T, P)   Initial       Final       Delta

Greigite        -52.77   -65.95    -13.18    0.000e+00           0   0.000e+00
Mackinawite     -15.47   -10.62      4.85    0.000e+00           0   0.000e+00
Pyrite          -15.78   -44.71    -28.93    0.000e+00           0   0.000e+00
Pyrrhotite      -14.36   -10.62      3.74    0.000e+00           0   0.000e+00
pH_fix           -6.00    -6.00      0.00
	 HCl                is reactant       1.000e+01   1.000e+01  -5.901e-12
pe_fix            4.23     4.23      0.00
	 O2                 is reactant       1.000e+01   1.000e+01  -9.983e-13

-----------------------------Solution composition------------------------------

	Elements           Molality       Moles

	Cl                9.911e-07   9.911e-07
	Fe                9.000e-12   9.000e-12
	S                 3.000e-12   3.000e-12

----------------------------Description of solution----------------------------

                                       pH  =   6.000      Charge balance
                                       pe  =  -4.230      Adjusted to redox equilibrium
                        Activity of water  =   1.000
                 Ionic strength (mol/kgw)  =   1.001e-06
                       Mass of water (kg)  =   1.000e+00
                 Total alkalinity (eq/kg)  =  -9.911e-07
                         Temperature (°C)  =  25.00
                  Electrical balance (eq)  =  -5.236e-16
 Percent error, 100*(Cat-|An|)/(Cat+|An|)  =  -0.00
                               Iterations  =   4
                                  Total H  = 1.110124e+02
                                  Total O  = 5.550622e+01

----------------------------Distribution of species----------------------------

                                               Log       Log       Log    mole V
   Species          Molality    Activity  Molality  Activity     Gamma    cm³/mol

   H+              1.001e-06   1.000e-06    -5.999    -6.000    -0.001      0.00
   OH-             1.006e-08   1.005e-08    -7.997    -7.998    -0.001     (0)  
   H2O             5.551e+01   1.000e+00     1.744    -0.000     0.000     18.07
Cl            9.911e-07
   Cl-             9.911e-07   9.900e-07    -6.004    -6.004    -0.001     (0)  
   FeCl+2          1.471e-33   1.465e-33   -32.832   -32.834    -0.002     (0)  
   FeCl2+          6.484e-39   6.476e-39   -38.188   -38.189    -0.001     (0)  
   FeCl3           0.000e+00   0.000e+00   -45.193   -45.193     0.000     (0)  
Fe(2)         9.000e-12
   Fe+2            8.997e-12   8.955e-12   -11.046   -11.048    -0.002     (0)  
   FeOH+           2.835e-15   2.832e-15   -14.547   -14.548    -0.001     (0)  
   Fe(OH)2         2.410e-20   2.410e-20   -19.618   -19.618     0.000     (0)  
   Fe(OH)3-        8.966e-25   8.955e-25   -24.047   -24.048    -0.001     (0)  
   Fe(HS)2         7.560e-28   7.560e-28   -27.121   -27.121     0.000     (0)  
   FeSO4           1.550e-35   1.550e-35   -34.810   -34.810     0.000     (0)  
   Fe(HS)3-        2.537e-38   2.534e-38   -37.596   -37.596    -0.001     (0)  
Fe(3)         1.064e-22
   Fe(OH)2+        1.049e-22   1.047e-22   -21.979   -21.980    -0.001     (0)  
   Fe(OH)3         1.230e-24   1.230e-24   -23.910   -23.910     0.000     (0)  
   FeOH+2          3.178e-25   3.163e-25   -24.498   -24.500    -0.002     (0)  
   Fe(OH)4-        1.232e-26   1.230e-26   -25.909   -25.910    -0.001     (0)  
   Fe+3            4.950e-29   4.899e-29   -28.305   -28.310    -0.005     (0)  
   FeCl+2          1.471e-33   1.465e-33   -32.832   -32.834    -0.002     (0)  
   FeCl2+          6.484e-39   6.476e-39   -38.188   -38.189    -0.001     (0)  
   FeCl3           0.000e+00   0.000e+00   -45.193   -45.193     0.000     (0)  
   Fe2(OH)2+4      0.000e+00   0.000e+00   -47.562   -47.570    -0.008     (0)  
   FeSO4+          0.000e+00   0.000e+00   -50.401   -50.402    -0.001     (0)  
   Fe3(OH)4+5      0.000e+00   0.000e+00   -67.217   -67.230    -0.013     (0)  
   Fe(SO4)2-       0.000e+00   0.000e+00   -74.913   -74.913    -0.001     (0)  
H(0)          4.083e-07
   H2              2.042e-07   2.042e-07    -6.690    -6.690     0.000     (0)  
O(0)          0.000e+00
   O2              0.000e+00   0.000e+00   -79.000   -79.000     0.000     (0)  
S(-2)         3.000e-12
   H2S             2.691e-12   2.691e-12   -11.570   -11.570     0.000     (0)  
   HS-             3.081e-13   3.078e-13   -12.511   -12.512    -0.001     (0)  
   S5-2            7.857e-17   7.821e-17   -16.105   -16.107    -0.002     (0)  
   S4-2            4.584e-17   4.563e-17   -16.339   -16.341    -0.002     (0)  
   S6-2            4.067e-17   4.048e-17   -16.391   -16.393    -0.002     (0)  
   S-2             3.735e-20   3.717e-20   -19.428   -19.430    -0.002     (0)  
   S3-2            1.615e-20   1.608e-20   -19.792   -19.794    -0.002     (0)  
   S2-2            9.168e-22   9.125e-22   -21.038   -21.040    -0.002     (0)  
   Fe(HS)2         7.560e-28   7.560e-28   -27.121   -27.121     0.000     (0)  
   Fe(HS)3-        2.537e-38   2.534e-38   -37.596   -37.596    -0.001     (0)  
S(6)          9.780e-27
   SO4-2           9.779e-27   9.733e-27   -26.010   -26.012    -0.002     (0)  
   HSO4-           9.456e-31   9.445e-31   -30.024   -30.025    -0.001     (0)  
   FeSO4           1.550e-35   1.550e-35   -34.810   -34.810     0.000     (0)  
   FeSO4+          0.000e+00   0.000e+00   -50.401   -50.402    -0.001     (0)  
   Fe(SO4)2-       0.000e+00   0.000e+00   -74.913   -74.913    -0.001     (0)  

------------------------------Saturation indices-------------------------------

  Phase               SI** log IAP   log K(298 K,   1 atm)

  Fe(OH)2.7Cl0.3  -10.87    -13.91   -3.04  Fe(OH)2.7Cl0.3
  Fe2(SO4)3      -138.24   -134.66    3.58  Fe2(SO4)3
  Fe3(OH)8        -39.89    -19.67   20.22  Fe3(OH)8
  Ferrihydrite    -15.20    -10.31    4.89  Fe(OH)3
  FeS(ppt)        -13.64    -17.56   -3.92  FeS
  Goethite        -10.81    -10.31    0.50  FeOOH
  Greigite        -52.77    -65.95  -13.18  Fe3S4
  Hematite        -16.61    -20.62   -4.01  Fe2O3
  Jarosite-H      -94.85   -106.95  -12.10  (H3O)Fe3(SO4)2(OH)6
  Lepidocrocite   -11.68    -10.31    1.37  FeOOH
  Mackinawite     -15.47    -10.62    4.85  FeS
  Maghemite       -27.01    -20.62    6.39  Fe2O3
  Magnetite       -23.40    -19.67    3.74  Fe3O4
  Melanterite     -34.59    -37.06   -2.47  FeSO4:7H2O
  O2(g)           -76.04      7.08   83.12  O2
  pe_fix            4.23      4.23    0.00  e-
  pH_fix           -6.00     -6.00    0.00  H+
  Pyrite          -15.78    -44.71  -28.93  FeS2
  Pyrrhotite      -14.36    -10.62    3.74  FeS
  Sulfur          -12.86    -14.97   -2.11  S

**For a gas, SI = log10(fugacity). Fugacity = pressure * phi / 1 atm.
  For ideal gases, phi = 1.

Reaction step 4.

Using solution 1.	PURE WATER
Using pure phase assemblage 1.	
Using reaction 1.	

Reaction 1.	

	  1.000e-12 moles of the following reaction have been added:

	                 Relative
	Reactant            moles

	Fe3S1                1.00000

	                 Relative
	Element             moles
	Fe                   3.00000
	S                    1.00000

-------------------------------Phase assemblage--------------------------------

                                                      Moles in assemblage
Phase               SI  log IAP  log K(T, P)   Initial       Final       Delta

Greigite        -51.90   -65.07    -13.18    0.000e+00           0   0.000e+00
Mackinawite     -15.22   -10.37      4.85    0.000e+00           0   0.000e+00
Pyrite          -15.40   -44.34    -28.93    0.000e+00           0   0.000e+00
Pyrrhotite      -14.11   -10.37      3.74    0.000e+00           0   0.000e+00
pH_fix           -6.00    -6.00      0.00
	 HCl                is reactant       1.000e+01   1.000e+01  -5.901e-12
pe_fix            4.23     4.23      0.00
	 O2                 is reactant       1.000e+01   1.000e+01  -1.007e-12

-----------------------------Solution composition------------------------------

	Elements           Molality       Moles

	Cl                9.911e-07   9.911e-07
	Fe                1.200e-11   1.200e-11
	S                 4.000e-12   4.000e-12

----------------------------Description of solution----------------------------

                                       pH  =   6.000      Charge balance
                                       pe  =  -4.230      Adjusted to redox equilibrium
                        Activity of water  =   1.000
                 Ionic strength (mol/kgw)  =   1.001e-06
                       Mass of water (kg)  =   1.000e+00
                 Total alkalinity (eq/kg)  =  -9.911e-07
                         Temperature (°C)  =  25.00
                  Electrical balance (eq)  =  -5.236e-16
 Percent error, 100*(Cat-|An|)/(Cat+|An|)  =  -0.00
                               Iterations  =   4
                                  Total H  = 1.110124e+02
                                  Total O  = 5.550622e+01

----------------------------Distribution of species----------------------------

                                               Log       Log       Log    mole V
   Species          Molality    Activity  Molality  Activity     Gamma    cm³/mol

   H+              1.001e-06   1.000e-06    -5.999    -6.000    -0.001      0.00
   OH-             1.006e-08   1.005e-08    -7.997    -7.998    -0.001     (0)  
   H2O             5.551e+01   1.000e+00     1.744    -0.000     0.000     18.07
Cl            9.911e-07
   Cl-             9.911e-07   9.900e-07    -6.004    -6.004    -0.001     (0)  
   FeCl+2          1.962e-33   1.953e-33   -32.707   -32.709    -0.002     (0)  
   FeCl2+          8.645e-39   8.635e-39   -38.063   -38.064    -0.001     (0)  
   FeCl3           0.000e+00   0.000e+00   -45.068   -45.068     0.000     (0)  
Fe(2)         1.200e-11
   Fe+2            1.200e-11   1.194e-11   -10.921   -10.923    -0.002     (0)  
   FeOH+           3.780e-15   3.776e-15   -14.422   -14.423    -0.001     (0)  
   Fe(OH)2         3.214e-20   3.214e-20   -19.493   -19.493     0.000     (0)  
   Fe(OH)3-        1.195e-24   1.194e-24   -23.922   -23.923    -0.001     (0)  
   Fe(HS)2         1.792e-27   1.792e-27   -26.747   -26.747     0.000     (0)  
   FeSO4           2.755e-35   2.755e-35   -34.560   -34.560     0.000     (0)  
   Fe(HS)3-        8.018e-38   8.008e-38   -37.096   -37.096    -0.001     (0)  
Fe(3)         1.419e-22
   Fe(OH)2+        1.398e-22   1.396e-22   -21.854   -21.855    -0.001     (0)  
   Fe(OH)3         1.641e-24   1.641e-24   -23.785   -23.785     0.000     (0)  
   FeOH+2          4.237e-25   4.217e-25   -24.373   -24.375    -0.002     (0)  
   Fe(OH)4-        1.643e-26   1.641e-26   -25.784   -25.785    -0.001     (0)  
   Fe+3            6.601e-29   6.531e-29   -28.180   -28.185    -0.005     (0)  
   FeCl+2          1.962e-33   1.953e-33   -32.707   -32.709    -0.002     (0)  
   FeCl2+          8.645e-39   8.635e-39   -38.063   -38.064    -0.001     (0)  
   FeCl3           0.000e+00   0.000e+00   -45.068   -45.068     0.000     (0)  
   Fe2(OH)2+4      0.000e+00   0.000e+00   -47.312   -47.320    -0.008     (0)  
   FeSO4+          0.000e+00   0.000e+00   -50.151   -50.152    -0.001     (0)  
   Fe3(OH)4+5      0.000e+00   0.000e+00   -66.842   -66.855    -0.013     (0)  
   Fe(SO4)2-       0.000e+00   0.000e+00   -74.538   -74.539    -0.001     (0)  
H(0)          4.083e-07
   H2              2.042e-07   2.042e-07    -6.690    -6.690     0.000     (0)  
O(0)          0.000e+00
   O2              0.000e+00   0.000e+00   -79.000   -79.000     0.000     (0)  
S(-2)         4.000e-12
   H2S             3.588e-12   3.588e-12   -11.445   -11.445     0.000     (0)  
   HS-             4.109e-13   4.104e-13   -12.386   -12.387    -0.001     (0)  
   S5-2            1.048e-16   1.043e-16   -15.980   -15.982    -0.002     (0)  
   S4-2            6.112e-17   6.084e-17   -16.214   -16.216    -0.002     (0)  
   S6-2            5.423e-17   5.397e-17   -16.266   -16.268    -0.002     (0)  
   S-2             4.980e-20   4.957e-20   -19.303   -19.305    -0.002     (0)  
   S3-2            2.154e-20   2.144e-20   -19.667   -19.669    -0.002     (0)  
   S2-2            1.222e-21   1.217e-21   -20.913   -20.915    -0.002     (0)  
   Fe(HS)2         1.792e-27   1.792e-27   -26.747   -26.747     0.000     (0)  
   Fe(HS)3-        8.018e-38   8.008e-38   -37.096   -37.096    -0.001     (0)  
S(6)          1.304e-26
   SO4-2           1.304e-26   1.298e-26   -25.885   -25.887    -0.002     (0)  
   HSO4-           1.261e-30   1.259e-30   -29.899   -29.900    -0.001     (0)  
   FeSO4           2.755e-35   2.755e-35   -34.560   -34.560     0.000     (0)  
   FeSO4+          0.000e+00   0.000e+00   -50.151   -50.152    -0.001     (0)  
   Fe(SO4)2-       0.000e+00   0.000e+00   -74.538   -74.539    -0.001     (0)  

------------------------------Saturation indices-------------------------------

  Phase               SI** log IAP   log K(298 K,   1 atm)

  Fe(OH)2.7Cl0.3  -10.75    -13.79   -3.04  Fe(OH)2.7Cl0.3
  Fe2(SO4)3      -137.61   -134.03    3.58  Fe2(SO4)3
  Fe3(OH)8        -39.51    -19.29   20.22  Fe3(OH)8
  Ferrihydrite    -15.08    -10.18    4.89  Fe(OH)3
  FeS(ppt)        -13.39    -17.31   -3.92  FeS
  Goethite        -10.68    -10.18    0.50  FeOOH
  Greigite        -51.90    -65.07  -13.18  Fe3S4
  Hematite        -16.36    -20.37   -4.01  Fe2O3
  Jarosite-H      -94.23   -106.33  -12.10  (H3O)Fe3(SO4)2(OH)6
  Lepidocrocite   -11.56    -10.18    1.37  FeOOH
  Mackinawite     -15.22    -10.37    4.85  FeS
  Maghemite       -26.76    -20.37    6.39  Fe2O3
  Magnetite       -23.03    -19.29    3.74  Fe3O4
  Melanterite     -34.34    -36.81   -2.47  FeSO4:7H2O
  O2(g)           -76.04      7.08   83.12  O2
  pe_fix            4.23      4.23    0.00  e-
  pH_fix           -6.00     -6.00    0.00  H+
  Pyrite          -15.40    -44.34  -28.93  FeS2
  Pyrrhotite      -14.11    -10.37    3.74  FeS
  Sulfur          -12.74    -14.85   -2.11  S

**For a gas, SI = log10(fugacity). Fugacity = pressure * phi / 1 atm.
  For ideal gases, phi = 1.

Reaction step 5.

Using solution 1.	PURE WATER
Using pure phase assemblage 1.	
Using reaction 1.	

Reaction 1.	

	  1.000e-12 moles of the following reaction have been added:

	                 Relative
	Reactant            moles

	Fe3S1                1.00000

	                 Relative
	Element             moles
	Fe                   3.00000
	S                    1.00000

-------------------------------Phase assemblage--------------------------------

                                                      Moles in assemblage
Phase               SI  log IAP  log K(T, P)   Initial       Final       Delta

Greigite        -51.22   -64.40    -13.18    0.000e+00           0   0.000e+00
Mackinawite     -15.02   -10.17      4.85    0.000e+00           0   0.000e+00
Pyrite          -15.11   -44.05    -28.93    0.000e+00           0   0.000e+00
Pyrrhotite      -13.92   -10.17      3.74    0.000e+00           0   0.000e+00
pH_fix           -6.00    -6.00      0.00
	 HCl                is reactant       1.000e+01   1.000e+01  -5.901e-12
pe_fix            4.23     4.23      0.00
	 O2                 is reactant       1.000e+01   1.000e+01  -1.000e-12

-----------------------------Solution composition------------------------------

	Elements           Molality       Moles

	Cl                9.911e-07   9.911e-07
	Fe                1.500e-11   1.500e-11
	S                 5.000e-12   5.000e-12

----------------------------Description of solution----------------------------

                                       pH  =   6.000      Charge balance
                                       pe  =  -4.230      Adjusted to redox equilibrium
                        Activity of water  =   1.000
                 Ionic strength (mol/kgw)  =   1.001e-06
                       Mass of water (kg)  =   1.000e+00
                 Total alkalinity (eq/kg)  =  -9.911e-07
                         Temperature (°C)  =  25.00
                  Electrical balance (eq)  =  -5.217e-16
 Percent error, 100*(Cat-|An|)/(Cat+|An|)  =  -0.00
                               Iterations  =   3
                                  Total H  = 1.110124e+02
                                  Total O  = 5.550622e+01

----------------------------Distribution of species----------------------------

                                               Log       Log       Log    mole V
   Species          Molality    Activity  Molality  Activity     Gamma    cm³/mol

   H+              1.001e-06   1.000e-06    -5.999    -6.000    -0.001      0.00
   OH-             1.006e-08   1.005e-08    -7.997    -7.998    -0.001     (0)  
   H2O             5.551e+01   1.000e+00     1.744    -0.000     0.000     18.07
Cl            9.911e-07
   Cl-             9.911e-07   9.900e-07    -6.004    -6.004    -0.001     (0)  
   FeCl+2          2.452e-33   2.441e-33   -32.610   -32.612    -0.002     (0)  
   FeCl2+          1.081e-38   1.079e-38   -37.966   -37.967    -0.001     (0)  
   FeCl3           0.000e+00   0.000e+00   -44.971   -44.971     0.000     (0)  
Fe(2)         1.500e-11
   Fe+2            1.500e-11   1.493e-11   -10.824   -10.826    -0.002     (0)  
   FeOH+           4.725e-15   4.720e-15   -14.326   -14.326    -0.001     (0)  
   Fe(OH)2         4.017e-20   4.017e-20   -19.396   -19.396     0.000     (0)  
   Fe(OH)3-        1.494e-24   1.493e-24   -23.826   -23.826    -0.001     (0)  
   Fe(HS)2         3.500e-27   3.500e-27   -26.456   -26.456     0.000     (0)  
   FeSO4           4.305e-35   4.305e-35   -34.366   -34.366     0.000     (0)  
   Fe(HS)3-        1.957e-37   1.955e-37   -36.708   -36.709    -0.001     (0)  
Fe(3)         1.774e-22
   Fe(OH)2+        1.748e-22   1.745e-22   -21.758   -21.758    -0.001     (0)  
   Fe(OH)3         2.051e-24   2.051e-24   -23.688   -23.688     0.000     (0)  
   FeOH+2          5.296e-25   5.271e-25   -24.276   -24.278    -0.002     (0)  
   Fe(OH)4-        2.053e-26   2.051e-26   -25.688   -25.688    -0.001     (0)  
   Fe+3            8.251e-29   8.164e-29   -28.084   -28.088    -0.005     (0)  
   FeCl+2          2.452e-33   2.441e-33   -32.610   -32.612    -0.002     (0)  
   FeCl2+          1.081e-38   1.079e-38   -37.966   -37.967    -0.001     (0)  
   FeCl3           0.000e+00   0.000e+00   -44.971   -44.971     0.000     (0)  
   Fe2(OH)2+4      0.000e+00   0.000e+00   -47.118   -47.126    -0.008     (0)  
   FeSO4+          0.000e+00   0.000e+00   -49.957   -49.958    -0.001     (0)  
   Fe3(OH)4+5      0.000e+00   0.000e+00   -66.552   -66.564    -0.013     (0)  
   Fe(SO4)2-       0.000e+00   0.000e+00   -74.247   -74.248    -0.001     (0)  
H(0)          4.083e-07
   H2              2.042e-07   2.042e-07    -6.690    -6.690     0.000     (0)  
O(0)          0.000e+00
   O2              0.000e+00   0.000e+00   -79.000   -79.000     0.000     (0)  
S(-2)         5.000e-12
   H2S             4.485e-12   4.485e-12   -11.348   -11.348     0.000     (0)  
   HS-             5.136e-13   5.130e-13   -12.289   -12.290    -0.001     (0)  
   S5-2            1.310e-16   1.303e-16   -15.883   -15.885    -0.002     (0)  
   S4-2            7.641e-17   7.605e-17   -16.117   -16.119    -0.002     (0)  
   S6-2            6.778e-17   6.747e-17   -16.169   -16.171    -0.002     (0)  
   S-2             6.225e-20   6.196e-20   -19.206   -19.208    -0.002     (0)  
   S3-2            2.692e-20   2.680e-20   -19.570   -19.572    -0.002     (0)  
   S2-2            1.528e-21   1.521e-21   -20.816   -20.818    -0.002     (0)  
   Fe(HS)2         3.500e-27   3.500e-27   -26.456   -26.456     0.000     (0)  
   Fe(HS)3-        1.957e-37   1.955e-37   -36.708   -36.709    -0.001     (0)  
S(6)          1.630e-26
   SO4-2           1.630e-26   1.622e-26   -25.788   -25.790    -0.002     (0)  
   HSO4-           1.576e-30   1.574e-30   -29.802   -29.803    -0.001     (0)  
   FeSO4           4.305e-35   4.305e-35   -34.366   -34.366     0.000     (0)  
   FeSO4+          0.000e+00   0.000e+00   -49.957   -49.958    -0.001     (0)  
   Fe(SO4)2-       0.000e+00   0.000e+00   -74.247   -74.248    -0.001     (0)  

------------------------------Saturation indices-------------------------------

  Phase               SI** log IAP   log K(298 K,   1 atm)

  Fe(OH)2.7Cl0.3  -10.65    -13.69   -3.04  Fe(OH)2.7Cl0.3
  Fe2(SO4)3      -137.13   -133.55    3.58  Fe2(SO4)3
  Fe3(OH)8        -39.22    -19.00   20.22  Fe3(OH)8
  Ferrihydrite    -14.98    -10.09    4.89  Fe(OH)3
  FeS(ppt)        -13.20    -17.12   -3.92  FeS
  Goethite        -10.59    -10.09    0.50  FeOOH
  Greigite        -51.22    -64.40  -13.18  Fe3S4
  Hematite        -16.17    -20.18   -4.01  Fe2O3
  Jarosite-H      -93.74   -105.84  -12.10  (H3O)Fe3(SO4)2(OH)6
  Lepidocrocite   -11.46    -10.09    1.37  FeOOH
  Mackinawite     -15.02    -10.17    4.85  FeS
  Maghemite       -26.56    -20.18    6.39  Fe2O3
  Magnetite       -22.74    -19.00    3.74  Fe3O4
  Melanterite     -34.15    -36.62   -2.47  FeSO4:7H2O
  O2(g)           -76.04      7.08   83.12  O2
  pe_fix            4.23      4.23    0.00  e-
  pH_fix           -6.00     -6.00    0.00  H+
  Pyrite          -15.11    -44.05  -28.93  FeS2
  Pyrrhotite      -13.92    -10.17    3.74  FeS
  Sulfur          -12.64    -14.75   -2.11  S

**For a gas, SI = log10(fugacity). Fugacity = pressure * phi / 1 atm.
  For ideal gases, phi = 1.

Reaction step 6.

Using solution 1.	PURE WATER
Using pure phase assemblage 1.	
Using reaction 1.	

Reaction 1.	

	  1.000e-12 moles of the following reaction have been added:

	                 Relative
	Reactant            moles

	Fe3S1                1.00000

	                 Relative
	Element             moles
	Fe                   3.00000
	S                    1.00000

-------------------------------Phase assemblage--------------------------------

                                                      Moles in assemblage
Phase               SI  log IAP  log K(T, P)   Initial       Final       Delta

Greigite        -50.66   -63.84    -13.18    0.000e+00           0   0.000e+00
Mackinawite     -14.87   -10.02      4.85    0.000e+00           0   0.000e+00
Pyrite          -14.87   -43.81    -28.93    0.000e+00           0   0.000e+00
Pyrrhotite      -13.76   -10.02      3.74    0.000e+00           0   0.000e+00
pH_fix           -6.00    -6.00      0.00
	 HCl                is reactant       1.000e+01   1.000e+01  -5.901e-12
pe_fix            4.23     4.23      0.00
	 O2                 is reactant       1.000e+01   1.000e+01  -1.002e-12

-----------------------------Solution composition------------------------------

	Elements           Molality       Moles

	Cl                9.911e-07   9.911e-07
	Fe                1.800e-11   1.800e-11
	S                 6.000e-12   6.000e-12

----------------------------Description of solution----------------------------

                                       pH  =   6.000      Charge balance
                                       pe  =  -4.230      Adjusted to redox equilibrium
                        Activity of water  =   1.000
                 Ionic strength (mol/kgw)  =   1.001e-06
                       Mass of water (kg)  =   1.000e+00
                 Total alkalinity (eq/kg)  =  -9.911e-07
                         Temperature (°C)  =  25.00
                  Electrical balance (eq)  =  -5.213e-16
 Percent error, 100*(Cat-|An|)/(Cat+|An|)  =  -0.00
                               Iterations  =   3
                                  Total H  = 1.110124e+02
                                  Total O  = 5.550622e+01

----------------------------Distribution of species----------------------------

                                               Log       Log       Log    mole V
   Species          Molality    Activity  Molality  Activity     Gamma    cm³/mol

   H+              1.001e-06   1.000e-06    -5.999    -6.000    -0.001      0.00
   OH-             1.006e-08   1.005e-08    -7.997    -7.998    -0.001     (0)  
   H2O             5.551e+01   1.000e+00     1.744    -0.000     0.000     18.07
Cl            9.911e-07
   Cl-             9.911e-07   9.900e-07    -6.004    -6.004    -0.001     (0)  
   FeCl+2          2.943e-33   2.929e-33   -32.531   -32.533    -0.002     (0)  
   FeCl2+          1.297e-38   1.295e-38   -37.887   -37.888    -0.001     (0)  
   FeCl3           0.000e+00   0.000e+00   -44.892   -44.892     0.000     (0)  
Fe(2)         1.800e-11
   Fe+2            1.799e-11   1.791e-11   -10.745   -10.747    -0.002     (0)  
   FeOH+           5.670e-15   5.664e-15   -14.246   -14.247    -0.001     (0)  
   Fe(OH)2         4.821e-20   4.821e-20   -19.317   -19.317     0.000     (0)  
   Fe(OH)3-        1.793e-24   1.791e-24   -23.746   -23.747    -0.001     (0)  
   Fe(HS)2         6.048e-27   6.048e-27   -26.218   -26.218     0.000     (0)  
   FeSO4           6.200e-35   6.200e-35   -34.208   -34.208     0.000     (0)  
   Fe(HS)3-        4.059e-37   4.054e-37   -36.392   -36.392    -0.001     (0)  
Fe(3)         2.128e-22
   Fe(OH)2+        2.097e-22   2.095e-22   -21.678   -21.679    -0.001     (0)  
   Fe(OH)3         2.461e-24   2.461e-24   -23.609   -23.609     0.000     (0)  
   FeOH+2          6.355e-25   6.326e-25   -24.197   -24.199    -0.002     (0)  
   Fe(OH)4-        2.464e-26   2.461e-26   -25.608   -25.609    -0.001     (0)  
   Fe+3            9.901e-29   9.797e-29   -28.004   -28.009    -0.005     (0)  
   FeCl+2          2.943e-33   2.929e-33   -32.531   -32.533    -0.002     (0)  
   FeCl2+          1.297e-38   1.295e-38   -37.887   -37.888    -0.001     (0)  
   FeCl3           0.000e+00   0.000e+00   -44.892   -44.892     0.000     (0)  
   Fe2(OH)2+4      0.000e+00   0.000e+00   -46.960   -46.968    -0.008     (0)  
   FeSO4+          0.000e+00   0.000e+00   -49.799   -49.800    -0.001     (0)  
   Fe3(OH)4+5      0.000e+00   0.000e+00   -66.314   -66.327    -0.013     (0)  
   Fe(SO4)2-       0.000e+00   0.000e+00   -74.010   -74.010    -0.001     (0)  
H(0)          4.083e-07
   H2              2.042e-07   2.042e-07    -6.690    -6.690     0.000     (0)  
O(0)          0.000e+00
   O2              0.000e+00   0.000e+00   -79.000   -79.000     0.000     (0)  
S(-2)         6.000e-12
   H2S             5.382e-12   5.382e-12   -11.269   -11.269     0.000     (0)  
   HS-             6.163e-13   6.156e-13   -12.210   -12.211    -0.001     (0)  
   S5-2            1.571e-16   1.564e-16   -15.804   -15.806    -0.002     (0)  
   S4-2            9.169e-17   9.126e-17   -16.038   -16.040    -0.002     (0)  
   S6-2            8.134e-17   8.096e-17   -16.090   -16.092    -0.002     (0)  
   S-2             7.470e-20   7.435e-20   -19.127   -19.129    -0.002     (0)  
   S3-2            3.231e-20   3.216e-20   -19.491   -19.493    -0.002     (0)  
   S2-2            1.834e-21   1.825e-21   -20.737   -20.739    -0.002     (0)  
   Fe(HS)2         6.048e-27   6.048e-27   -26.218   -26.218     0.000     (0)  
   Fe(HS)3-        4.059e-37   4.054e-37   -36.392   -36.392    -0.001     (0)  
S(6)          1.956e-26
   SO4-2           1.956e-26   1.947e-26   -25.709   -25.711    -0.002     (0)  
   HSO4-           1.891e-30   1.889e-30   -29.723   -29.724    -0.001     (0)  
   FeSO4           6.200e-35   6.200e-35   -34.208   -34.208     0.000     (0)  
   FeSO4+          0.000e+00   0.000e+00   -49.799   -49.800    -0.001     (0)  
   Fe(SO4)2-       0.000e+00   0.000e+00   -74.010   -74.010    -0.001     (0)  

------------------------------Saturation indices-------------------------------

  Phase               SI** log IAP   log K(298 K,   1 atm)

  Fe(OH)2.7Cl0.3  -10.57    -13.61   -3.04  Fe(OH)2.7Cl0.3
  Fe2(SO4)3      -136.73   -133.15    3.58  Fe2(SO4)3
  Fe3(OH)8        -38.99    -18.76   20.22  Fe3(OH)8
  Ferrihydrite    -14.90    -10.01    4.89  Fe(OH)3
  FeS(ppt)        -13.04    -16.96   -3.92  FeS
  Goethite        -10.51    -10.01    0.50  FeOOH
  Greigite        -50.66    -63.84  -13.18  Fe3S4
  Hematite        -16.01    -20.02   -4.01  Fe2O3
  Jarosite-H      -93.35   -105.45  -12.10  (H3O)Fe3(SO4)2(OH)6
  Lepidocrocite   -11.38    -10.01    1.37  FeOOH
  Mackinawite     -14.87    -10.02    4.85  FeS
  Maghemite       -26.40    -20.02    6.39  Fe2O3
  Magnetite       -22.50    -18.76    3.74  Fe3O4
  Melanterite     -33.99    -36.46   -2.47  FeSO4:7H2O
  O2(g)           -76.04      7.08   83.12  O2
  pe_fix            4.23      4.23    0.00  e-
  pH_fix           -6.00     -6.00    0.00  H+
  Pyrite          -14.87    -43.81  -28.93  FeS2
  Pyrrhotite      -13.76    -10.02    3.74  FeS
  Sulfur          -12.56    -14.67   -2.11  S

**For a gas, SI = log10(fugacity). Fugacity = pressure * phi / 1 atm.
  For ideal gases, phi = 1.

Reaction step 7.

Using solution 1.	PURE WATER
Using pure phase assemblage 1.	
Using reaction 1.	

Reaction 1.	

	  1.000e-12 moles of the following reaction have been added:

	                 Relative
	Reactant            moles

	Fe3S1                1.00000

	                 Relative
	Element             moles
	Fe                   3.00000
	S                    1.00000

-------------------------------Phase assemblage--------------------------------

                                                      Moles in assemblage
Phase               SI  log IAP  log K(T, P)   Initial       Final       Delta

Greigite        -50.19   -63.37    -13.18    0.000e+00           0   0.000e+00
Mackinawite     -14.73    -9.88      4.85    0.000e+00           0   0.000e+00
Pyrite          -14.67   -43.61    -28.93    0.000e+00           0   0.000e+00
Pyrrhotite      -13.62    -9.88      3.74    0.000e+00           0   0.000e+00
pH_fix           -6.00    -6.00      0.00
	 HCl                is reactant       1.000e+01   1.000e+01  -5.901e-12
pe_fix            4.23     4.23      0.00
	 O2                 is reactant       1.000e+01   1.000e+01  -9.983e-13

-----------------------------Solution composition------------------------------

	Elements           Molality       Moles

	Cl                9.912e-07   9.912e-07
	Fe                2.100e-11   2.100e-11
	S                 7.000e-12   7.000e-12

----------------------------Description of solution----------------------------

                                       pH  =   6.000      Charge balance
                                       pe  =  -4.230      Adjusted to redox equilibrium
                        Activity of water  =   1.000
                 Ionic strength (mol/kgw)  =   1.001e-06
                       Mass of water (kg)  =   1.000e+00
                 Total alkalinity (eq/kg)  =  -9.911e-07
                         Temperature (°C)  =  25.00
                  Electrical balance (eq)  =  -5.212e-16
 Percent error, 100*(Cat-|An|)/(Cat+|An|)  =  -0.00
                               Iterations  =   3
                                  Total H  = 1.110124e+02
                                  Total O  = 5.550622e+01

----------------------------Distribution of species----------------------------

                                               Log       Log       Log    mole V
   Species          Molality    Activity  Molality  Activity     Gamma    cm³/mol

   H+              1.001e-06   1.000e-06    -5.999    -6.000    -0.001      0.00
   OH-             1.006e-08   1.005e-08    -7.997    -7.998    -0.001     (0)  
   H2O             5.551e+01   1.000e+00     1.744    -0.000     0.000     18.07
Cl            9.912e-07
   Cl-             9.912e-07   9.900e-07    -6.004    -6.004    -0.001     (0)  
   FeCl+2          3.433e-33   3.417e-33   -32.464   -32.466    -0.002     (0)  
   FeCl2+          1.513e-38   1.511e-38   -37.820   -37.821    -0.001     (0)  
   FeCl3           0.000e+00   0.000e+00   -44.825   -44.825     0.000     (0)  
Fe(2)         2.100e-11
   Fe+2            2.099e-11   2.090e-11   -10.678   -10.680    -0.002     (0)  
   FeOH+           6.615e-15   6.608e-15   -14.179   -14.180    -0.001     (0)  
   Fe(OH)2         5.624e-20   5.624e-20   -19.250   -19.250     0.000     (0)  
   Fe(OH)3-        2.092e-24   2.090e-24   -23.679   -23.680    -0.001     (0)  
   Fe(HS)2         9.605e-27   9.605e-27   -26.018   -26.018     0.000     (0)  
   FeSO4           8.438e-35   8.438e-35   -34.074   -34.074     0.000     (0)  
   Fe(HS)3-        7.520e-37   7.511e-37   -36.124   -36.124    -0.001     (0)  
Fe(3)         2.483e-22
   Fe(OH)2+        2.447e-22   2.444e-22   -21.611   -21.612    -0.001     (0)  
   Fe(OH)3         2.871e-24   2.871e-24   -23.542   -23.542     0.000     (0)  
   FeOH+2          7.415e-25   7.380e-25   -24.130   -24.132    -0.002     (0)  
   Fe(OH)4-        2.874e-26   2.871e-26   -25.541   -25.542    -0.001     (0)  
   Fe+3            1.155e-28   1.143e-28   -27.937   -27.942    -0.005     (0)  
   FeCl+2          3.433e-33   3.417e-33   -32.464   -32.466    -0.002     (0)  
   FeCl2+          1.513e-38   1.511e-38   -37.820   -37.821    -0.001     (0)  
   FeCl3           0.000e+00   0.000e+00   -44.825   -44.825     0.000     (0)  
   Fe2(OH)2+4      0.000e+00   0.000e+00   -46.826   -46.834    -0.008     (0)  
   FeSO4+          0.000e+00   0.000e+00   -49.665   -49.666    -0.001     (0)  
   Fe3(OH)4+5      0.000e+00   0.000e+00   -66.113   -66.126    -0.013     (0)  
   Fe(SO4)2-       0.000e+00   0.000e+00   -73.809   -73.810    -0.001     (0)  
H(0)          4.083e-07
   H2              2.042e-07   2.042e-07    -6.690    -6.690     0.000     (0)  
O(0)          0.000e+00
   O2              0.000e+00   0.000e+00   -79.000   -79.000     0.000     (0)  
S(-2)         7.000e-12
   H2S             6.279e-12   6.279e-12   -11.202   -11.202     0.000     (0)  
   HS-             7.190e-13   7.182e-13   -12.143   -12.144    -0.001     (0)  
   S5-2            1.833e-16   1.825e-16   -15.737   -15.739    -0.002     (0)  
   S4-2            1.070e-16   1.065e-16   -15.971   -15.973    -0.002     (0)  
   S6-2            9.490e-17   9.445e-17   -16.023   -16.025    -0.002     (0)  
   S-2             8.715e-20   8.674e-20   -19.060   -19.062    -0.002     (0)  
   S3-2            3.769e-20   3.752e-20   -19.424   -19.426    -0.002     (0)  
   S2-2            2.139e-21   2.129e-21   -20.670   -20.672    -0.002     (0)  
   Fe(HS)2         9.605e-27   9.605e-27   -26.018   -26.018     0.000     (0)  
   Fe(HS)3-        7.520e-37   7.511e-37   -36.124   -36.124    -0.001     (0)  
S(6)          2.282e-26
   SO4-2           2.282e-26   2.271e-26   -25.642   -25.644    -0.002     (0)  
   HSO4-           2.206e-30   2.204e-30   -29.656   -29.657    -0.001     (0)  
   FeSO4           8.438e-35   8.438e-35   -34.074   -34.074     0.000     (0)  
   FeSO4+          0.000e+00   0.000e+00   -49.665   -49.666    -0.001     (0)  
   Fe(SO4)2-       0.000e+00   0.000e+00   -73.809   -73.810    -0.001     (0)  

------------------------------Saturation indices-------------------------------

  Phase               SI** log IAP   log K(298 K,   1 atm)

  Fe(OH)2.7Cl0.3  -10.50    -13.54   -3.04  Fe(OH)2.7Cl0.3
  Fe2(SO4)3      -136.40   -132.82    3.58  Fe2(SO4)3
  Fe3(OH)8        -38.79    -18.56   20.22  Fe3(OH)8
  Ferrihydrite    -14.83     -9.94    4.89  Fe(OH)3
  FeS(ppt)        -12.91    -16.82   -3.92  FeS
  Goethite        -10.44     -9.94    0.50  FeOOH
  Greigite        -50.19    -63.37  -13.18  Fe3S4
  Hematite        -15.88    -19.88   -4.01  Fe2O3
  Jarosite-H      -93.01   -105.11  -12.10  (H3O)Fe3(SO4)2(OH)6
  Lepidocrocite   -11.31     -9.94    1.37  FeOOH
  Mackinawite     -14.73     -9.88    4.85  FeS
  Maghemite       -26.27    -19.88    6.39  Fe2O3
  Magnetite       -22.30    -18.56    3.74  Fe3O4
  Melanterite     -33.85    -36.32   -2.47  FeSO4:7H2O
  O2(g)           -76.04      7.08   83.12  O2
  pe_fix            4.23      4.23    0.00  e-
  pH_fix           -6.00     -6.00    0.00  H+
  Pyrite          -14.67    -43.61  -28.93  FeS2
  Pyrrhotite      -13.62     -9.88    3.74  FeS
  Sulfur          -12.49    -14.60   -2.11  S

**For a gas, SI = log10(fugacity). Fugacity = pressure * phi / 1 atm.
  For ideal gases, phi = 1.

Reaction step 8.

Using solution 1.	PURE WATER
Using pure phase assemblage 1.	
Using reaction 1.	

Reaction 1.	

	  1.000e-12 moles of the following reaction have been added:

	                 Relative
	Reactant            moles

	Fe3S1                1.00000

	                 Relative
	Element             moles
	Fe                   3.00000
	S                    1.00000

-------------------------------Phase assemblage--------------------------------

                                                      Moles in assemblage
Phase               SI  log IAP  log K(T, P)   Initial       Final       Delta

Greigite        -49.79   -62.97    -13.18    0.000e+00           0   0.000e+00
Mackinawite     -14.62    -9.77      4.85    0.000e+00           0   0.000e+00
Pyrite          -14.50   -43.43    -28.93    0.000e+00           0   0.000e+00
Pyrrhotite      -13.51    -9.77      3.74    0.000e+00           0   0.000e+00
pH_fix           -6.00    -6.00      0.00
	 HCl                is reactant       1.000e+01   1.000e+01  -5.901e-12
pe_fix            4.23     4.23      0.00
	 O2                 is reactant       1.000e+01   1.000e+01  -1.007e-12

-----------------------------Solution composition------------------------------

	Elements           Molality       Moles

	Cl                9.912e-07   9.912e-07
	Fe                2.400e-11   2.400e-11
	S                 8.000e-12   8.000e-12

----------------------------Description of solution----------------------------

                                       pH  =   6.000      Charge balance
                                       pe  =  -4.230      Adjusted to redox equilibrium
                        Activity of water  =   1.000
                 Ionic strength (mol/kgw)  =   1.001e-06
                       Mass of water (kg)  =   1.000e+00
                 Total alkalinity (eq/kg)  =  -9.911e-07
                         Temperature (°C)  =  25.00
                  Electrical balance (eq)  =  -5.211e-16
 Percent error, 100*(Cat-|An|)/(Cat+|An|)  =  -0.00
                               Iterations  =   3
                                  Total H  = 1.110124e+02
                                  Total O  = 5.550622e+01

----------------------------Distribution of species----------------------------

                                               Log       Log       Log    mole V
   Species          Molality    Activity  Molality  Activity     Gamma    cm³/mol

   H+              1.001e-06   1.000e-06    -5.999    -6.000    -0.001      0.00
   OH-             1.006e-08   1.005e-08    -7.997    -7.998    -0.001     (0)  
   H2O             5.551e+01   1.000e+00     1.744    -0.000     0.000     18.07
Cl            9.912e-07
   Cl-             9.912e-07   9.900e-07    -6.004    -6.004    -0.001     (0)  
   FeCl+2          3.924e-33   3.905e-33   -32.406   -32.408    -0.002     (0)  
   FeCl2+          1.729e-38   1.727e-38   -37.762   -37.763    -0.001     (0)  
   FeCl3           0.000e+00   0.000e+00   -44.767   -44.767     0.000     (0)  
Fe(2)         2.400e-11
   Fe+2            2.399e-11   2.388e-11   -10.620   -10.622    -0.002     (0)  
   FeOH+           7.560e-15   7.552e-15   -14.121   -14.122    -0.001     (0)  
   Fe(OH)2         6.427e-20   6.427e-20   -19.192   -19.192     0.000     (0)  
   Fe(OH)3-        2.391e-24   2.388e-24   -23.621   -23.622    -0.001     (0)  
   Fe(HS)2         1.434e-26   1.434e-26   -25.844   -25.844     0.000     (0)  
   FeSO4           1.102e-34   1.102e-34   -33.958   -33.958     0.000     (0)  
   Fe(HS)3-        1.283e-36   1.281e-36   -35.892   -35.892    -0.001     (0)  
Fe(3)         2.838e-22
   Fe(OH)2+        2.796e-22   2.793e-22   -21.553   -21.554    -0.001     (0)  
   Fe(OH)3         3.281e-24   3.281e-24   -23.484   -23.484     0.000     (0)  
   FeOH+2          8.474e-25   8.434e-25   -24.072   -24.074    -0.002     (0)  
   Fe(OH)4-        3.285e-26   3.281e-26   -25.483   -25.484    -0.001     (0)  
   Fe+3            1.320e-28   1.306e-28   -27.879   -27.884    -0.005     (0)  
   FeCl+2          3.924e-33   3.905e-33   -32.406   -32.408    -0.002     (0)  
   FeCl2+          1.729e-38   1.727e-38   -37.762   -37.763    -0.001     (0)  
   FeCl3           0.000e+00   0.000e+00   -44.767   -44.767     0.000     (0)  
   Fe2(OH)2+4      0.000e+00   0.000e+00   -46.710   -46.718    -0.008     (0)  
   FeSO4+          0.000e+00   0.000e+00   -49.549   -49.550    -0.001     (0)  
   Fe3(OH)4+5      0.000e+00   0.000e+00   -65.939   -65.952    -0.013     (0)  
   Fe(SO4)2-       0.000e+00   0.000e+00   -73.635   -73.636    -0.001     (0)  
H(0)          4.083e-07
   H2              2.042e-07   2.042e-07    -6.690    -6.690     0.000     (0)  
O(0)          0.000e+00
   O2              0.000e+00   0.000e+00   -79.000   -79.000     0.000     (0)  
S(-2)         8.000e-12
   H2S             7.176e-12   7.176e-12   -11.144   -11.144     0.000     (0)  
   HS-             8.217e-13   8.207e-13   -12.085   -12.086    -0.001     (0)  
   S5-2            2.095e-16   2.085e-16   -15.679   -15.681    -0.002     (0)  
   S4-2            1.222e-16   1.217e-16   -15.913   -15.915    -0.002     (0)  
   S6-2            1.085e-16   1.079e-16   -15.965   -15.967    -0.002     (0)  
   S-2             9.960e-20   9.913e-20   -19.002   -19.004    -0.002     (0)  
   S3-2            4.308e-20   4.288e-20   -19.366   -19.368    -0.002     (0)  
   S2-2            2.445e-21   2.433e-21   -20.612   -20.614    -0.002     (0)  
   Fe(HS)2         1.434e-26   1.434e-26   -25.844   -25.844     0.000     (0)  
   Fe(HS)3-        1.283e-36   1.281e-36   -35.892   -35.892    -0.001     (0)  
S(6)          2.608e-26
   SO4-2           2.608e-26   2.595e-26   -25.584   -25.586    -0.002     (0)  
   HSO4-           2.522e-30   2.519e-30   -29.598   -29.599    -0.001     (0)  
   FeSO4           1.102e-34   1.102e-34   -33.958   -33.958     0.000     (0)  
   FeSO4+          0.000e+00   0.000e+00   -49.549   -49.550    -0.001     (0)  
   Fe(SO4)2-       0.000e+00   0.000e+00   -73.635   -73.636    -0.001     (0)  

------------------------------Saturation indices-------------------------------

  Phase               SI** log IAP   log K(298 K,   1 atm)

  Fe(OH)2.7Cl0.3  -10.45    -13.49   -3.04  Fe(OH)2.7Cl0.3
  Fe2(SO4)3      -136.11   -132.53    3.58  Fe2(SO4)3
  Fe3(OH)8        -38.61    -18.39   20.22  Fe3(OH)8
  Ferrihydrite    -14.77     -9.88    4.89  Fe(OH)3
  FeS(ppt)        -12.79    -16.71   -3.92  FeS
  Goethite        -10.38     -9.88    0.50  FeOOH
  Greigite        -49.79    -62.97  -13.18  Fe3S4
  Hematite        -15.76    -19.77   -4.01  Fe2O3
  Jarosite-H      -92.72   -104.82  -12.10  (H3O)Fe3(SO4)2(OH)6
  Lepidocrocite   -11.25     -9.88    1.37  FeOOH
  Mackinawite     -14.62     -9.77    4.85  FeS
  Maghemite       -26.15    -19.77    6.39  Fe2O3
  Magnetite       -22.13    -18.39    3.74  Fe3O4
  Melanterite     -33.74    -36.21   -2.47  FeSO4:7H2O
  O2(g)           -76.04      7.08   83.12  O2
  pe_fix            4.23      4.23    0.00  e-
  pH_fix           -6.00     -6.00    0.00  H+
  Pyrite          -14.50    -43.43  -28.93  FeS2
  Pyrrhotite      -13.51     -9.77    3.74  FeS
  Sulfur          -12.44    -14.55   -2.11  S

**For a gas, SI = log10(fugacity). Fugacity = pressure * phi / 1 atm.
  For ideal gases, phi = 1.

Reaction step 9.

Using solution 1.	PURE WATER
Using pure phase assemblage 1.	
Using reaction 1.	

Reaction 1.	

	  1.000e-12 moles of the following reaction have been added:

	                 Relative
	Reactant            moles

	Fe3S1                1.00000

	                 Relative
	Element             moles
	Fe                   3.00000
	S                    1.00000

-------------------------------Phase assemblage--------------------------------

                                                      Moles in assemblage
Phase               SI  log IAP  log K(T, P)   Initial       Final       Delta

Greigite        -49.43   -62.61    -13.18    0.000e+00           0   0.000e+00
Mackinawite     -14.51    -9.66      4.85    0.000e+00           0   0.000e+00
Pyrite          -14.35   -43.28    -28.93    0.000e+00           0   0.000e+00
Pyrrhotite      -13.41    -9.66      3.74    0.000e+00           0   0.000e+00
pH_fix           -6.00    -6.00      0.00
	 HCl                is reactant       1.000e+01   1.000e+01  -5.901e-12
pe_fix            4.23     4.23      0.00
	 O2                 is reactant       1.000e+01   1.000e+01  -1.004e-12

-----------------------------Solution composition------------------------------

	Elements           Molality       Moles

	Cl                9.912e-07   9.912e-07
	Fe                2.700e-11   2.700e-11
	S                 9.000e-12   9.000e-12

----------------------------Description of solution----------------------------

                                       pH  =   6.000      Charge balance
                                       pe  =  -4.230      Adjusted to redox equilibrium
                        Activity of water  =   1.000
                 Ionic strength (mol/kgw)  =   1.001e-06
                       Mass of water (kg)  =   1.000e+00
                 Total alkalinity (eq/kg)  =  -9.911e-07
                         Temperature (°C)  =  25.00
                  Electrical balance (eq)  =  -5.211e-16
 Percent error, 100*(Cat-|An|)/(Cat+|An|)  =  -0.00
                               Iterations  =   3
                                  Total H  = 1.110124e+02
                                  Total O  = 5.550622e+01

----------------------------Distribution of species----------------------------

                                               Log       Log       Log    mole V
   Species          Molality    Activity  Molality  Activity     Gamma    cm³/mol

   H+              1.001e-06   1.000e-06    -5.999    -6.000    -0.001      0.00
   OH-             1.006e-08   1.005e-08    -7.997    -7.998    -0.001     (0)  
   H2O             5.551e+01   1.000e+00     1.744    -0.000     0.000     18.07
Cl            9.912e-07
   Cl-             9.912e-07   9.900e-07    -6.004    -6.004    -0.001     (0)  
   FeCl+2          4.414e-33   4.394e-33   -32.355   -32.357    -0.002     (0)  
   FeCl2+          1.945e-38   1.943e-38   -37.711   -37.712    -0.001     (0)  
   FeCl3           0.000e+00   0.000e+00   -44.716   -44.716     0.000     (0)  
Fe(2)         2.700e-11
   Fe+2            2.699e-11   2.687e-11   -10.569   -10.571    -0.002     (0)  
   FeOH+           8.505e-15   8.496e-15   -14.070   -14.071    -0.001     (0)  
   Fe(OH)2         7.231e-20   7.231e-20   -19.141   -19.141     0.000     (0)  
   Fe(OH)3-        2.690e-24   2.687e-24   -23.570   -23.571    -0.001     (0)  
   Fe(HS)2         2.041e-26   2.041e-26   -25.690   -25.690     0.000     (0)  
   FeSO4           1.395e-34   1.395e-34   -33.855   -33.855     0.000     (0)  
   Fe(HS)3-        2.055e-36   2.052e-36   -35.687   -35.688    -0.001     (0)  
Fe(3)         3.192e-22
   Fe(OH)2+        3.146e-22   3.142e-22   -21.502   -21.503    -0.001     (0)  
   Fe(OH)3         3.691e-24   3.691e-24   -23.433   -23.433     0.000     (0)  
   FeOH+2          9.533e-25   9.488e-25   -24.021   -24.023    -0.002     (0)  
   Fe(OH)4-        3.696e-26   3.691e-26   -25.432   -25.433    -0.001     (0)  
   Fe+3            1.485e-28   1.470e-28   -27.828   -27.833    -0.005     (0)  
   FeCl+2          4.414e-33   4.394e-33   -32.355   -32.357    -0.002     (0)  
   FeCl2+          1.945e-38   1.943e-38   -37.711   -37.712    -0.001     (0)  
   FeCl3           0.000e+00   0.000e+00   -44.716   -44.716     0.000     (0)  
   Fe2(OH)2+4      0.000e+00   0.000e+00   -46.607   -46.616    -0.008     (0)  
   FeSO4+          0.000e+00   0.000e+00   -49.447   -49.447    -0.001     (0)  
   Fe3(OH)4+5      0.000e+00   0.000e+00   -65.786   -65.798    -0.013     (0)  
   Fe(SO4)2-       0.000e+00   0.000e+00   -73.482   -73.482    -0.001     (0)  
H(0)          4.083e-07
   H2              2.042e-07   2.042e-07    -6.690    -6.690     0.000     (0)  
O(0)          0.000e+00
   O2              0.000e+00   0.000e+00   -79.000   -79.000     0.000     (0)  
S(-2)         9.000e-12
   H2S             8.073e-12   8.073e-12   -11.093   -11.093     0.000     (0)  
   HS-             9.244e-13   9.233e-13   -12.034   -12.035    -0.001     (0)  
   S5-2            2.357e-16   2.346e-16   -15.628   -15.630    -0.002     (0)  
   S4-2            1.375e-16   1.369e-16   -15.862   -15.864    -0.002     (0)  
   S6-2            1.220e-16   1.214e-16   -15.914   -15.916    -0.002     (0)  
   S-2             1.120e-19   1.115e-19   -18.951   -18.953    -0.002     (0)  
   S3-2            4.846e-20   4.823e-20   -19.315   -19.317    -0.002     (0)  
   S2-2            2.750e-21   2.738e-21   -20.561   -20.563    -0.002     (0)  
   Fe(HS)2         2.041e-26   2.041e-26   -25.690   -25.690     0.000     (0)  
   Fe(HS)3-        2.055e-36   2.052e-36   -35.687   -35.688    -0.001     (0)  
S(6)          2.934e-26
   SO4-2           2.934e-26   2.920e-26   -25.533   -25.535    -0.002     (0)  
   HSO4-           2.837e-30   2.833e-30   -29.547   -29.548    -0.001     (0)  
   FeSO4           1.395e-34   1.395e-34   -33.855   -33.855     0.000     (0)  
   FeSO4+          0.000e+00   0.000e+00   -49.447   -49.447    -0.001     (0)  
   Fe(SO4)2-       0.000e+00   0.000e+00   -73.482   -73.482    -0.001     (0)  

------------------------------Saturation indices-------------------------------

  Phase               SI** log IAP   log K(298 K,   1 atm)

  Fe(OH)2.7Cl0.3  -10.39    -13.43   -3.04  Fe(OH)2.7Cl0.3
  Fe2(SO4)3      -135.85   -132.27    3.58  Fe2(SO4)3
  Fe3(OH)8        -38.46    -18.24   20.22  Fe3(OH)8
  Ferrihydrite    -14.72     -9.83    4.89  Fe(OH)3
  FeS(ppt)        -12.69    -16.61   -3.92  FeS
  Goethite        -10.33     -9.83    0.50  FeOOH
  Greigite        -49.43    -62.61  -13.18  Fe3S4
  Hematite        -15.66    -19.67   -4.01  Fe2O3
  Jarosite-H      -92.47   -104.57  -12.10  (H3O)Fe3(SO4)2(OH)6
  Lepidocrocite   -11.20     -9.83    1.37  FeOOH
  Mackinawite     -14.51     -9.66    4.85  FeS
  Maghemite       -26.05    -19.67    6.39  Fe2O3
  Magnetite       -21.97    -18.24    3.74  Fe3O4
  Melanterite     -33.64    -36.11   -2.47  FeSO4:7H2O
  O2(g)           -76.04      7.08   83.12  O2
  pe_fix            4.23      4.23    0.00  e-
  pH_fix           -6.00     -6.00    0.00  H+
  Pyrite          -14.35    -43.28  -28.93  FeS2
  Pyrrhotite      -13.41     -9.66    3.74  FeS
  Sulfur          -12.38    -14.49   -2.11  S

**For a gas, SI = log10(fugacity). Fugacity = pressure * phi / 1 atm.
  For ideal gases, phi = 1.

Reaction step 10.

Using solution 1.	PURE WATER
Using pure phase assemblage 1.	
Using reaction 1.	

Reaction 1.	

	  1.000e-12 moles of the following reaction have been added:

	                 Relative
	Reactant            moles

	Fe3S1                1.00000

	                 Relative
	Element             moles
	Fe                   3.00000
	S                    1.00000

-------------------------------Phase assemblage--------------------------------

                                                      Moles in assemblage
Phase               SI  log IAP  log K(T, P)   Initial       Final       Delta

Greigite        -49.11   -62.29    -13.18    0.000e+00           0   0.000e+00
Mackinawite     -14.42    -9.57      4.85    0.000e+00           0   0.000e+00
Pyrite          -14.21   -43.14    -28.93    0.000e+00           0   0.000e+00
Pyrrhotite      -13.31    -9.57      3.74    0.000e+00           0   0.000e+00
pH_fix           -6.00    -6.00      0.00
	 HCl                is reactant       1.000e+01   1.000e+01  -5.901e-12
pe_fix            4.23     4.23      0.00
	 O2                 is reactant       1.000e+01   1.000e+01  -1.000e-12

-----------------------------Solution composition------------------------------

	Elements           Molality       Moles

	Cl                9.912e-07   9.912e-07
	Fe                3.000e-11   3.000e-11
	S                 1.000e-11   1.000e-11

----------------------------Description of solution----------------------------

                                       pH  =   6.000      Charge balance
                                       pe  =  -4.230      Adjusted to redox equilibrium
                        Activity of water  =   1.000
                 Ionic strength (mol/kgw)  =   1.001e-06
                       Mass of water (kg)  =   1.000e+00
                 Total alkalinity (eq/kg)  =  -9.911e-07
                         Temperature (°C)  =  25.00
                  Electrical balance (eq)  =  -5.211e-16
 Percent error, 100*(Cat-|An|)/(Cat+|An|)  =  -0.00
                               Iterations  =   3
                                  Total H  = 1.110124e+02
                                  Total O  = 5.550622e+01

----------------------------Distribution of species----------------------------

                                               Log       Log       Log    mole V
   Species          Molality    Activity  Molality  Activity     Gamma    cm³/mol

   H+              1.001e-06   1.000e-06    -5.999    -6.000    -0.001      0.00
   OH-             1.006e-08   1.005e-08    -7.997    -7.998    -0.001     (0)  
   H2O             5.551e+01   1.000e+00     1.744    -0.000     0.000     18.07
Cl            9.912e-07
   Cl-             9.912e-07   9.900e-07    -6.004    -6.004    -0.001     (0)  
   FeCl+2          4.905e-33   4.882e-33   -32.309   -32.311    -0.002     (0)  
   FeCl2+          2.161e-38   2.159e-38   -37.665   -37.666    -0.001     (0)  
   FeCl3           0.000e+00   0.000e+00   -44.670   -44.670     0.000     (0)  
Fe(2)         3.000e-11
   Fe+2            2.999e-11   2.985e-11   -10.523   -10.525    -0.002     (0)  
   FeOH+           9.451e-15   9.439e-15   -14.025   -14.025    -0.001     (0)  
   Fe(OH)2         8.034e-20   8.034e-20   -19.095   -19.095     0.000     (0)  
   Fe(OH)3-        2.989e-24   2.985e-24   -23.525   -23.525    -0.001     (0)  
   Fe(HS)2         2.800e-26   2.800e-26   -25.553   -25.553     0.000     (0)  
   FeSO4           1.722e-34   1.722e-34   -33.764   -33.764     0.000     (0)  
   Fe(HS)3-        3.132e-36   3.128e-36   -35.504   -35.505    -0.001     (0)  
Fe(3)         3.547e-22
   Fe(OH)2+        3.495e-22   3.491e-22   -21.457   -21.457    -0.001     (0)  
   Fe(OH)3         4.102e-24   4.102e-24   -23.387   -23.387     0.000     (0)  
   FeOH+2          1.059e-24   1.054e-24   -23.975   -23.977    -0.002     (0)  
   Fe(OH)4-        4.106e-26   4.102e-26   -25.387   -25.387    -0.001     (0)  
   Fe+3            1.650e-28   1.633e-28   -27.782   -27.787    -0.005     (0)  
   FeCl+2          4.905e-33   4.882e-33   -32.309   -32.311    -0.002     (0)  
   FeCl2+          2.161e-38   2.159e-38   -37.665   -37.666    -0.001     (0)  
   FeCl3           0.000e+00   0.000e+00   -44.670   -44.670     0.000     (0)  
   Fe2(OH)2+4      0.000e+00   0.000e+00   -46.516   -46.524    -0.008     (0)  
   FeSO4+          0.000e+00   0.000e+00   -49.355   -49.356    -0.001     (0)  
   Fe3(OH)4+5      0.000e+00   0.000e+00   -65.648   -65.661    -0.013     (0)  
   Fe(SO4)2-       0.000e+00   0.000e+00   -73.344   -73.345    -0.001     (0)  
H(0)          4.083e-07
   H2              2.042e-07   2.042e-07    -6.690    -6.690     0.000     (0)  
O(0)          0.000e+00
   O2              0.000e+00   0.000e+00   -79.000   -79.000     0.000     (0)  
S(-2)         1.000e-11
   H2S             8.970e-12   8.970e-12   -11.047   -11.047     0.000     (0)  
   HS-             1.027e-12   1.026e-12   -11.988   -11.989    -0.001     (0)  
   S5-2            2.619e-16   2.607e-16   -15.582   -15.584    -0.002     (0)  
   S4-2            1.528e-16   1.521e-16   -15.816   -15.818    -0.002     (0)  
   S6-2            1.356e-16   1.349e-16   -15.868   -15.870    -0.002     (0)  
   S-2             1.245e-19   1.239e-19   -18.905   -18.907    -0.002     (0)  
   S3-2            5.385e-20   5.359e-20   -19.269   -19.271    -0.002     (0)  
   S2-2            3.056e-21   3.042e-21   -20.515   -20.517    -0.002     (0)  
   Fe(HS)2         2.800e-26   2.800e-26   -25.553   -25.553     0.000     (0)  
   Fe(HS)3-        3.132e-36   3.128e-36   -35.504   -35.505    -0.001     (0)  
S(6)          3.260e-26
   SO4-2           3.260e-26   3.244e-26   -25.487   -25.489    -0.002     (0)  
   HSO4-           3.152e-30   3.148e-30   -29.501   -29.502    -0.001     (0)  
   FeSO4           1.722e-34   1.722e-34   -33.764   -33.764     0.000     (0)  
   FeSO4+          0.000e+00   0.000e+00   -49.355   -49.356    -0.001     (0)  
   Fe(SO4)2-       0.000e+00   0.000e+00   -73.344   -73.345    -0.001     (0)  

------------------------------Saturation indices-------------------------------

[...]
   Cl-             4.670e-01   2.795e-01    -0.331    -0.554    -0.223     (0)  
   FeCl+2          4.310e-15   8.258e-16   -14.366   -15.083    -0.718     (0)  
   FeCl2+          1.558e-15   1.031e-15   -14.807   -14.987    -0.179     (0)  
   FeCl3           2.456e-17   2.882e-17   -16.610   -16.540     0.069     (0)  
Fe(2)         2.269e-01
   Fe+2            2.269e-01   5.158e-02    -0.644    -1.288    -0.643     (0)  
   FeOH+           2.436e-09   1.612e-09    -8.613    -8.793    -0.179     (0)  
   Fe(HS)2         2.449e-12   2.873e-12   -11.611   -11.542     0.069     (0)  
   Fe(OH)2         1.155e-18   1.355e-18   -17.937   -17.868     0.069     (0)  
   Fe(HS)3-        1.044e-19   7.820e-20   -18.981   -19.107    -0.126     (0)  
   Fe(OH)3-        7.518e-27   4.974e-27   -26.124   -26.303    -0.179     (0)  
   FeSO4           1.230e-38   1.443e-38   -37.910   -37.841     0.069     (0)  
Fe(3)         7.465e-15
   FeCl+2          4.310e-15   8.258e-16   -14.366   -15.083    -0.718     (0)  
   FeCl2+          1.558e-15   1.031e-15   -14.807   -14.987    -0.179     (0)  
   Fe+3            1.244e-15   9.783e-17   -14.905   -16.010    -1.104     (0)  
   FeOH+2          3.257e-16   6.241e-17   -15.487   -16.205    -0.718     (0)  
   FeCl3           2.456e-17   2.882e-17   -16.610   -16.540     0.069     (0)  
   Fe(OH)2+        3.030e-18   2.042e-18   -17.519   -17.690    -0.171     (0)  
   Fe(OH)3         2.020e-24   2.370e-24   -23.695   -23.625     0.069     (0)  
   Fe2(OH)2+4      1.072e-29   1.048e-31   -28.970   -30.980    -2.010     (0)  
   Fe(OH)4-        3.475e-30   2.341e-30   -29.459   -29.631    -0.171     (0)  
   Fe3(OH)4+5      0.000e+00   0.000e+00   -43.209   -46.350    -3.140     (0)  
   FeSO4+          0.000e+00   0.000e+00   -50.713   -50.893    -0.179     (0)  
   Fe(SO4)2-       0.000e+00   0.000e+00   -88.070   -88.196    -0.126     (0)  
H(0)          2.895e-04
   H2              1.447e-04   1.698e-04    -3.839    -3.770     0.069     (0)  
O(0)          0.000e+00
   O2              0.000e+00   0.000e+00   -84.920   -84.851     0.069     (0)  
S(-2)         1.863e-05
   H2S             1.863e-05   2.186e-05    -4.730    -4.660     0.069     (0)  
   HS-             4.120e-10   2.500e-10    -9.385    -9.602    -0.217     (0)  
   Fe(HS)2         2.449e-12   2.873e-12   -11.611   -11.542     0.069     (0)  
   S5-2            2.020e-17   6.352e-18   -16.695   -17.197    -0.502     (0)  
   S4-2            1.179e-17   3.706e-18   -16.929   -17.431    -0.502     (0)  
   S6-2            1.046e-17   3.288e-18   -16.981   -17.483    -0.502     (0)  
   Fe(HS)3-        1.044e-19   7.820e-20   -18.981   -19.107    -0.126     (0)  
   S-2             1.576e-20   3.019e-21   -19.802   -20.520    -0.718     (0)  
   S3-2            4.153e-21   1.306e-21   -20.382   -20.884    -0.502     (0)  
   S2-2            2.357e-22   7.412e-23   -21.628   -22.130    -0.502     (0)  
S(6)          2.553e-38
   FeSO4           1.230e-38   1.443e-38   -37.910   -37.841     0.069     (0)  
   SO4-2           1.086e-38   1.574e-39   -37.964   -38.803    -0.839     (0)  
   HSO4-           2.367e-39   1.527e-39   -38.626   -38.816    -0.190     (0)  
   FeSO4+          0.000e+00   0.000e+00   -50.713   -50.893    -0.179     (0)  
   Fe(SO4)2-       0.000e+00   0.000e+00   -88.070   -88.196    -0.126     (0)  

------------------------------Saturation indices-------------------------------

  Phase               SI** log IAP   log K(298 K,   1 atm)

  Fe(OH)2.7Cl0.3   -7.75    -10.79   -3.04  Fe(OH)2.7Cl0.3
  Fe2(SO4)3      -152.01   -148.43    3.58  Fe2(SO4)3
  Fe3(OH)8        -37.57    -17.35   20.22  Fe3(OH)8
  Ferrihydrite    -14.92    -10.03    4.89  Fe(OH)3
  FeS(ppt)         -4.97     -8.89   -3.92  FeS
  Goethite        -10.52    -10.02    0.50  FeOOH
  Greigite        -19.65    -34.50  -14.85  Fe3S4
  Hematite        -16.03    -20.03   -4.01  Fe2O3
  Jarosite-H     -103.57   -115.67  -12.10  (H3O)Fe3(SO4)2(OH)6
  Lepidocrocite   -11.39    -10.02    1.37  FeOOH
  Mackinawite      -6.80     -1.95    4.85  FeS
  Maghemite       -26.42    -20.03    6.39  Fe2O3
  Magnetite       -21.06    -17.33    3.74  Fe3O4
  Melanterite     -37.66    -40.13   -2.47  FeSO4:7H2O
  O2(g)           -81.89      1.23   83.12  O2
  pe_fix            1.69      1.69    0.00  e-
  pH_fix           -2.00     -2.00    0.00  H+
  Pyrite           -0.00    -16.72  -16.72  FeS2
  Pyrrhotite       -5.69     -1.95    3.74  FeS
  Sulfur           -8.87    -10.98   -2.11  S

**For a gas, SI = log10(fugacity). Fugacity = pressure * phi / 1 atm.
  For ideal gases, phi = 1.

Reaction step 109.

Using solution 1.	PURE WATER
Using pure phase assemblage 1.	
Using reaction 1.	

Reaction 1.	

	  1.000e-02 moles of the following reaction have been added:

	                 Relative
	Reactant            moles

	Fe3S1                1.00000

	                 Relative
	Element             moles
	Fe                   3.00000
	S                    1.00000

-------------------------------Phase assemblage--------------------------------

                                                      Moles in assemblage
Phase               SI  log IAP  log K(T, P)   Initial       Final       Delta

Greigite          0.73    -0.91     -1.63    0.000e+00           0   0.000e+00
Mackinawite      -6.78    -1.93      4.85    0.000e+00           0   0.000e+00
Pyrite            7.14     0.00     -7.14    4.555e-02   5.055e-02   5.000e-03
Pyrrhotite       -5.67    -1.93      3.74    0.000e+00           0   0.000e+00
pH_fix           -2.00    -2.00      0.00
	 HCl                is reactant       9.531e+00   9.481e+00  -5.006e-02
pe_fix            1.69     1.69      0.00
	 O2                 is reactant       9.886e+00   9.874e+00  -1.250e-02

-----------------------------Solution composition------------------------------

	Elements           Molality       Moles

	Cl                5.166e-01   5.190e-01
	Fe                2.516e-01   2.528e-01
	S                 1.764e-05   1.772e-05

----------------------------Description of solution----------------------------

                                       pH  =   2.000      Charge balance
                                       pe  =  -1.690      Adjusted to redox equilibrium
                        Activity of water  =   0.987
                 Ionic strength (mol/kgw)  =   7.682e-01
                       Mass of water (kg)  =   1.005e+00
                 Total alkalinity (eq/kg)  =  -1.332e-02
                         Temperature (°C)  =  25.00
                  Electrical balance (eq)  =  -6.761e-10
 Percent error, 100*(Cat-|An|)/(Cat+|An|)  =  -0.00
                               Iterations  =   3
                                  Total H  = 1.115314e+02
                                  Total O  = 5.575884e+01

----------------------------Distribution of species----------------------------

                                               Log       Log       Log    mole V
   Species          Molality    Activity  Molality  Activity     Gamma    cm³/mol

   H+              1.332e-02   1.000e-02    -1.876    -2.000    -0.124      0.00
   OH-             1.655e-12   9.913e-13   -11.781   -12.004    -0.223     (0)  
   H2O             5.551e+01   9.867e-01     1.744    -0.006     0.000     18.07
Cl            5.166e-01
   Cl-             5.166e-01   3.054e-01    -0.287    -0.515    -0.228     (0)  
   FeCl+2          5.260e-15   9.728e-16   -14.279   -15.012    -0.733     (0)  
   FeCl2+          2.023e-15   1.327e-15   -14.694   -14.877    -0.183     (0)  
   FeCl3           3.395e-17   4.052e-17   -16.469   -16.392     0.077     (0)  
Fe(2)         2.516e-01
   Fe+2            2.516e-01   5.561e-02    -0.599    -1.255    -0.656     (0)  
   FeOH+           2.646e-09   1.735e-09    -8.577    -8.761    -0.183     (0)  
   Fe(HS)2         2.407e-12   2.873e-12   -11.619   -11.542     0.077     (0)  
   Fe(OH)2         1.221e-18   1.457e-18   -17.913   -17.836     0.077     (0)  
   Fe(HS)3-        9.944e-20   7.531e-20   -19.002   -19.123    -0.121     (0)  
   Fe(OH)3-        8.147e-27   5.343e-27   -26.089   -26.272    -0.183     (0)  
   FeSO4           1.249e-38   1.491e-38   -37.903   -37.826     0.077     (0)  
Fe(3)         9.075e-15
   FeCl+2          5.260e-15   9.728e-16   -14.279   -15.012    -0.733     (0)  
   FeCl2+          2.023e-15   1.327e-15   -14.694   -14.877    -0.183     (0)  
   Fe+3            1.392e-15   1.055e-16   -14.857   -15.977    -1.120     (0)  
   FeOH+2          3.634e-16   6.720e-17   -15.440   -16.173    -0.733     (0)  
   FeCl3           3.395e-17   4.052e-17   -16.469   -16.392     0.077     (0)  
   Fe(OH)2+        3.285e-18   2.196e-18   -17.483   -17.658    -0.175     (0)  
   Fe(OH)3         2.133e-24   2.545e-24   -23.671   -23.594     0.077     (0)  
   Fe2(OH)2+4      1.037e-29   1.216e-31   -28.984   -30.915    -1.931     (0)  
   Fe(OH)4-        3.758e-30   2.512e-30   -29.425   -29.600    -0.175     (0)  
   Fe3(OH)4+5      0.000e+00   0.000e+00   -43.237   -46.254    -3.017     (0)  
   FeSO4+          0.000e+00   0.000e+00   -50.695   -50.878    -0.183     (0)  
   Fe(SO4)2-       0.000e+00   0.000e+00   -88.079   -88.200    -0.121     (0)  
H(0)          2.846e-04
   H2              1.423e-04   1.698e-04    -3.847    -3.770     0.077     (0)  
O(0)          0.000e+00
   O2              0.000e+00   0.000e+00   -84.928   -84.852     0.077     (0)  
S(-2)         1.764e-05
   H2S             1.764e-05   2.105e-05    -4.754    -4.677     0.077     (0)  
   HS-             4.020e-10   2.407e-10    -9.396    -9.618    -0.223     (0)  
   Fe(HS)2         2.407e-12   2.873e-12   -11.619   -11.542     0.077     (0)  
   S5-2            1.859e-17   6.117e-18   -16.731   -17.213    -0.483     (0)  
   S4-2            1.085e-17   3.569e-18   -16.965   -17.447    -0.483     (0)  
   S6-2            9.622e-18   3.166e-18   -17.017   -17.499    -0.483     (0)  
   Fe(HS)3-        9.944e-20   7.531e-20   -19.002   -19.123    -0.121     (0)  
   S-2             1.572e-20   2.908e-21   -19.803   -20.536    -0.733     (0)  
   S3-2            3.822e-21   1.258e-21   -20.418   -20.900    -0.483     (0)  
   S2-2            2.169e-22   7.138e-23   -21.664   -22.146    -0.483     (0)  
S(6)          2.575e-38
   FeSO4           1.249e-38   1.491e-38   -37.903   -37.826     0.077     (0)  
   SO4-2           1.097e-38   1.508e-39   -37.960   -38.822    -0.862     (0)  
   HSO4-           2.291e-39   1.463e-39   -38.640   -38.835    -0.195     (0)  
   FeSO4+          0.000e+00   0.000e+00   -50.695   -50.878    -0.183     (0)  
   Fe(SO4)2-       0.000e+00   0.000e+00   -88.079   -88.200    -0.121     (0)  

------------------------------Saturation indices-------------------------------

  Phase               SI** log IAP   log K(298 K,   1 atm)

  Fe(OH)2.7Cl0.3   -7.71    -10.75   -3.04  Fe(OH)2.7Cl0.3
  Fe2(SO4)3      -152.00   -148.42    3.58  Fe2(SO4)3
  Fe3(OH)8        -37.48    -17.25   20.22  Fe3(OH)8
  Ferrihydrite    -14.89     -9.99    4.89  Fe(OH)3
  FeS(ppt)         -4.96     -8.87   -3.92  FeS
  Goethite        -10.49     -9.99    0.50  FeOOH
  Greigite        -19.62    -34.47  -14.85  Fe3S4
  Hematite        -15.96    -19.97   -4.01  Fe2O3
  Jarosite-H     -103.51   -115.61  -12.10  (H3O)Fe3(SO4)2(OH)6
  Lepidocrocite   -11.36     -9.99    1.37  FeOOH
  Mackinawite      -6.78     -1.93    4.85  FeS
  Maghemite       -26.36    -19.97    6.39  Fe2O3
  Magnetite       -20.97    -17.23    3.74  Fe3O4
  Melanterite     -37.65    -40.12   -2.47  FeSO4:7H2O
  O2(g)           -81.89      1.23   83.12  O2
  pe_fix            1.69      1.69    0.00  e-
  pH_fix           -2.00     -2.00    0.00  H+
  Pyrite            0.00    -16.72  -16.72  FeS2
  Pyrrhotite       -5.67     -1.93    3.74  FeS
  Sulfur           -8.89    -11.00   -2.11  S

**For a gas, SI = log10(fugacity). Fugacity = pressure * phi / 1 atm.
  For ideal gases, phi = 1.

Reaction step 110.

Using solution 1.	PURE WATER
Using pure phase assemblage 1.	
Using reaction 1.	

Reaction 1.	

	  1.000e-02 moles of the following reaction have been added:

	                 Relative
	Reactant            moles

	Fe3S1                1.00000

	                 Relative
	Element             moles
	Fe                   3.00000
	S                    1.00000

-------------------------------Phase assemblage--------------------------------

                                                      Moles in assemblage
Phase               SI  log IAP  log K(T, P)   Initial       Final       Delta

Greigite          0.71    -0.92     -1.63    0.000e+00           0   0.000e+00
Mackinawite      -6.77    -1.92      4.85    0.000e+00           0   0.000e+00
Pyrite            7.14     0.00     -7.14    5.055e-02   5.555e-02   5.000e-03
Pyrrhotite       -5.66    -1.92      3.74    0.000e+00           0   0.000e+00
pH_fix           -2.00    -2.00      0.00
	 HCl                is reactant       9.481e+00   9.431e+00  -5.005e-02
pe_fix            1.69     1.69      0.00
	 O2                 is reactant       9.874e+00   9.861e+00  -1.250e-02

-----------------------------Solution composition------------------------------

	Elements           Molality       Moles

	Cl                5.662e-01   5.690e-01
	Fe                2.764e-01   2.778e-01
	S                 1.675e-05   1.684e-05

----------------------------Description of solution----------------------------

                                       pH  =   2.000      Charge balance
                                       pe  =  -1.690      Adjusted to redox equilibrium
                        Activity of water  =   0.985
                 Ionic strength (mol/kgw)  =   8.426e-01
                       Mass of water (kg)  =   1.005e+00
                 Total alkalinity (eq/kg)  =  -1.337e-02
                         Temperature (°C)  =  25.00
                  Electrical balance (eq)  =  -6.837e-10
 Percent error, 100*(Cat-|An|)/(Cat+|An|)  =  -0.00
                               Iterations  =   3
                                  Total H  = 1.115814e+02
                                  Total O  = 5.578385e+01

----------------------------Distribution of species----------------------------

                                               Log       Log       Log    mole V
   Species          Molality    Activity  Molality  Activity     Gamma    cm³/mol

   H+              1.337e-02   1.000e-02    -1.874    -2.000    -0.126      0.00
   OH-             1.673e-12   9.900e-13   -11.777   -12.004    -0.228     (0)  
   H2O             5.551e+01   9.854e-01     1.744    -0.006     0.000     18.07
Cl            5.662e-01
   Cl-             5.662e-01   3.310e-01    -0.247    -0.480    -0.233     (0)  
   FeCl+2          6.302e-15   1.129e-15   -14.201   -14.947    -0.747     (0)  
   FeCl2+          2.566e-15   1.669e-15   -14.591   -14.778    -0.187     (0)  
   FeCl3           4.550e-17   5.524e-17   -16.342   -16.258     0.084     (0)  
Fe(2)         2.764e-01
   Fe+2            2.764e-01   5.956e-02    -0.558    -1.225    -0.667     (0)  
   FeOH+           2.853e-09   1.856e-09    -8.545    -8.731    -0.187     (0)  
   Fe(HS)2         2.366e-12   2.873e-12   -11.626   -11.542     0.084     (0)  
   Fe(OH)2         1.282e-18   1.557e-18   -17.892   -17.808     0.084     (0)  
   Fe(HS)3-        9.488e-20   7.278e-20   -19.023   -19.138    -0.115     (0)  
   Fe(OH)3-        8.760e-27   5.699e-27   -26.057   -26.244    -0.187     (0)  
   FeSO4           1.264e-38   1.535e-38   -37.898   -37.814     0.084     (0)  
Fe(3)         1.086e-14
   FeCl+2          6.302e-15   1.129e-15   -14.201   -14.947    -0.747     (0)  
   FeCl2+          2.566e-15   1.669e-15   -14.591   -14.778    -0.187     (0)  
   Fe+3            1.540e-15   1.130e-16   -14.813   -15.947    -1.135     (0)  
   FeOH+2          4.012e-16   7.187e-17   -15.397   -16.143    -0.747     (0)  
   FeCl3           4.550e-17   5.524e-17   -16.342   -16.258     0.084     (0)  
   Fe(OH)2+        3.534e-18   2.345e-18   -17.452   -17.630    -0.178     (0)  
   Fe(OH)3         2.236e-24   2.715e-24   -23.650   -23.566     0.084     (0)  
   Fe2(OH)2+4      9.682e-30   1.390e-31   -29.014   -30.857    -1.843     (0)  
   Fe(OH)4-        4.033e-30   2.676e-30   -29.394   -29.573    -0.178     (0)  
   Fe3(OH)4+5      0.000e+00   0.000e+00   -43.287   -46.167    -2.879     (0)  
   FeSO4+          0.000e+00   0.000e+00   -50.679   -50.866    -0.187     (0)  
   Fe(SO4)2-       0.000e+00   0.000e+00   -88.089   -88.205    -0.115     (0)  
H(0)          2.798e-04
   H2              1.399e-04   1.698e-04    -3.854    -3.770     0.084     (0)  
O(0)          0.000e+00
   O2              0.000e+00   0.000e+00   -84.937   -84.853     0.084     (0)  
S(-2)         1.675e-05
   H2S             1.675e-05   2.034e-05    -4.776    -4.692     0.084     (0)  
   HS-             3.931e-10   2.326e-10    -9.406    -9.633    -0.228     (0)  
   Fe(HS)2         2.366e-12   2.873e-12   -11.626   -11.542     0.084     (0)  
   S5-2            1.708e-17   5.911e-18   -16.768   -17.228    -0.461     (0)  
   S4-2            9.963e-18   3.449e-18   -17.002   -17.462    -0.461     (0)  
   S6-2            8.839e-18   3.060e-18   -17.054   -17.514    -0.461     (0)  
   Fe(HS)3-        9.488e-20   7.278e-20   -19.023   -19.138    -0.115     (0)  
   S-2             1.568e-20   2.810e-21   -19.805   -20.551    -0.747     (0)  
   S3-2            3.511e-21   1.215e-21   -20.455   -20.915    -0.461     (0)  
   S2-2            1.993e-22   6.898e-23   -21.701   -22.161    -0.461     (0)  
S(6)          2.593e-38
   FeSO4           1.264e-38   1.535e-38   -37.898   -37.814     0.084     (0)  
   SO4-2           1.106e-38   1.450e-39   -37.956   -38.839    -0.883     (0)  
   HSO4-           2.222e-39   1.407e-39   -38.653   -38.852    -0.199     (0)  
   FeSO4+          0.000e+00   0.000e+00   -50.679   -50.866    -0.187     (0)  
   Fe(SO4)2-       0.000e+00   0.000e+00   -88.089   -88.205    -0.115     (0)  

------------------------------Saturation indices-------------------------------

  Phase               SI** log IAP   log K(298 K,   1 atm)

  Fe(OH)2.7Cl0.3   -7.67    -10.71   -3.04  Fe(OH)2.7Cl0.3
  Fe2(SO4)3      -151.99   -148.41    3.58  Fe2(SO4)3
  Fe3(OH)8        -37.39    -17.17   20.22  Fe3(OH)8
  Ferrihydrite    -14.86     -9.97    4.89  Fe(OH)3
  FeS(ppt)         -4.94     -8.86   -3.92  FeS
  Goethite        -10.46     -9.96    0.50  FeOOH
  Greigite        -19.59    -34.44  -14.85  Fe3S4
  Hematite        -15.91    -19.91   -4.01  Fe2O3
  Jarosite-H     -103.46   -115.56  -12.10  (H3O)Fe3(SO4)2(OH)6
  Lepidocrocite   -11.33     -9.96    1.37  FeOOH
  Mackinawite      -6.77     -1.92    4.85  FeS
  Maghemite       -26.30    -19.91    6.39  Fe2O3
  Magnetite       -20.88    -17.14    3.74  Fe3O4
  Melanterite     -37.64    -40.11   -2.47  FeSO4:7H2O
  O2(g)           -81.89      1.23   83.12  O2
  pe_fix            1.69      1.69    0.00  e-
  pH_fix           -2.00     -2.00    0.00  H+
  Pyrite            0.00    -16.72  -16.72  FeS2
  Pyrrhotite       -5.66     -1.92    3.74  FeS
  Sulfur           -8.90    -11.01   -2.11  S

**For a gas, SI = log10(fugacity). Fugacity = pressure * phi / 1 atm.
  For ideal gases, phi = 1.

------------------
End of simulation.
------------------

------------------------------------
Reading input data for simulation 7.
------------------------------------

-------------------------------
End of Run after 1.794 Seconds.
-------------------------------

