   Input file: C:\Users\jt2020\OneDrive - Imperial College London\Data\Thermodynamics\Thermodynamics\Phreeq\Reaction Progress\All models with pyrrhotite\Polysulfides\S-2 reactions\Polysulfide reactions unbuffered Sn2-.pqi
  Output file: C:\Users\jt2020\OneDrive - Imperial College London\Data\Thermodynamics\Thermodynamics\Phreeq\Reaction Progress\All models with pyrrhotite\Polysulfides\S-2 reactions\Polysulfide reactions unbuffered Sn2-.pqo
Database file: C:\Users\jt2020\OneDrive - Imperial College London\Data\Thermodynamics\Thermodynamics\Phreeq\Reaction Progress\All models with pyrrhotite\Database\llnlpyrrminteqpoly.dat

------------------
Reading data base.
------------------

	SOLUTION_MASTER_SPECIES
	SOLUTION_SPECIES
	SOLUTION_SPECIES
	PHASES
	SURFACE_MASTER_SPECIES
	SURFACE_SPECIES
	END
------------------------------------
Reading input data for simulation 1.
------------------------------------

	DATABASE C:\Users\jt2020\OneDrive - Imperial College London\Data\Thermodynamics\Thermodynamics\Phreeq\Reaction Progress\All models with pyrrhotite\Database\llnlpyrrminteqpoly.dat
	TITLE Polysulfide reactions with Sn2-, Sulphur dominant
	SOLUTION 1  PURE WATER
	            pH    10.0 charge
	          temp   25
	            pe    -9.29
	PHASES
	pH_fix
	      H + = H +
	      log_k = 0.0
	pe_fix
	      e- = e-
	      log_k 0.0
	Sulfur
	      S + 2e- = S-2
	      log_k           -15.026
	      delta_h 7.9 kcal
	Mackinawite
	    FeS + H+ = Fe+2 + HS-
	    log_k     -2.137
	    delta_h   -3.578 kcal
	Greigite
	    Fe3S4 + S5-2 = 3Mackinawite(s) + S6-2   
	    log_k     -6.721
	    delta_h   38.521 kcal
	Pyrite
	    FeS2 + 0.33333333333333S3-2 = 0.3333333333333Greigite(s) + 0.3333333333333S5-2
	    log_k     -10.075
	    delta_h   7.3 kcal
	Pyrrhotite
	    FeS + H+ = Fe+2 + HS-    
	    log_k     -3.24554
	    delta_h    -2.64564 kcal 
	NaNO3
	    NaNO3 = Na+ + NO3-
	    log_K -20
	NaCl
	    NaCl = Cl- + Na+
	    log_k     -20
	END
-----
TITLE
-----

 Polysulfide reactions with Sn2-, Sulphur dominant

-------------------------------------------
Beginning of initial solution calculations.
-------------------------------------------

Initial solution 1.	PURE WATER

-----------------------------Solution composition------------------------------

	Elements           Molality       Moles

	Pure water     

----------------------------Description of solution----------------------------

                                       pH  =   7.081      Charge balance
                                       pe  =  -9.290    
                        Activity of water  =   0.685
                 Ionic strength (mol/kgw)  =   8.299e-08
                       Mass of water (kg)  =   1.000e+00
                 Total alkalinity (eq/kg)  =   3.868e-16
                         Temperature (°C)  =  25.00
                  Electrical balance (eq)  =  -3.868e-16
 Percent error, 100*(Cat-|An|)/(Cat+|An|)  =  -0.00
                               Iterations  =  31
                                  Total H  = 1.480613e+02
                                  Total O  = 5.550622e+01

----------------------------Distribution of species----------------------------

                                               Log       Log       Log    mole V
   Species          Molality    Activity  Molality  Activity     Gamma    cm³/mol

   OH-             8.299e-08   8.296e-08    -7.081    -7.081    -0.000     (0)  
   H+              8.299e-08   8.296e-08    -7.081    -7.081    -0.000      0.00
   H2O             5.551e+01   6.851e-01     1.744    -0.164     0.000     18.07
H(0)          3.705e+01
   H2              1.852e+01   1.852e+01     1.268     1.268     0.000     (0)  
O(0)          0.000e+00
   O2              0.000e+00   0.000e+00   -95.244   -95.244     0.000     (0)  

------------------------------Saturation indices-------------------------------

  Phase               SI** log IAP   log K(298 K,   1 atm)

  O2(g)           -92.28     -9.16   83.12  O2
  pe_fix            9.29      9.29    0.00  e-
  pH_fix           -7.08     -7.08    0.00  H+

**For a gas, SI = log10(fugacity). Fugacity = pressure * phi / 1 atm.
  For ideal gases, phi = 1.

------------------
End of simulation.
------------------

------------------------------------
Reading input data for simulation 2.
------------------------------------

	INCREMENTAL_REACTIONS
	REACTION
	Fe1S3 1
	10*1e-12 10*1e-11 10*1e-10 10*1e-9 10*1e-8 10*1e-7 10*1e-6 10*1e-5 10*1e-4  10*1e-3  10*1e-2 mol
	USE solution 1
	EQUILIBRIUM_PHASES 1
	        Mackinawite     0.0     0.0 
	        Greigite        0.0     0.0
	        Pyrite          0.0     0.0
	        Pyrrhotite      0.0     0.0
	USER_GRAPH 1 Simulation 6
	    -headings               Pyrite Greigite Mackinawite Pyrrhotite
	    -axis_titles            "Fe and S added, Log moles" "Mineral, moles"
	    -chart_title            "Pyrite pathway in a sulphur dominant system with Polysulfides as the oxidant"
	    -axis_scale sy_axis     auto auto auto auto log
	    -initial_solutions      false
	    -connect_simulations    false
	    -axis_scale y_axis      auto auto auto auto Log
	    -axis_scale sy_axis	    auto auto auto auto Log
	    -plot_concentration_vs  x
	  -start
	 5 PUT(GET(1) + RXN, 1)
	  20 PLOT_XY log10(GET(1)), EQUI("Pyrite") color = Green, line_w = 0,   	symbol = Plus, symbol_size = 5, y_axis = 2
	  30 PLOT_XY log10(GET(1)), EQUI("Greigite") color = Blue, line_w = 0,   	symbol = Plus, symbol_size = 5, y_axis = 2
	  40 PLOT_XY log10(GET(1)), EQUI("Mackinawite") color = Cyan, line_w = 0,   	symbol = Plus, symbol_size = 5, y_axis = 2
	  50 PLOT_XY log10(GET(1)), EQUI("Pyrrhotite") color = Red, line_w = 0,   	symbol = Plus, symbol_size = 5, y_axis = 2
	  -end
	    -active                 true
	SELECTED_OUTPUT
	    file                 poly S dom with Sn2- reactions.csv
	    saturation_indices   Mackinawite  Greigite  Pyrite Pyrrhotite
	    reaction             
	    totals               Fe S 
	    equilibrium_phases   Mackinawite  Greigite  Pyrite Pyrrhotite
	END
-----------------------------------------
Beginning of batch-reaction calculations.
-----------------------------------------

Reaction step 1.

Using solution 1.	PURE WATER
Using pure phase assemblage 1.	
Using reaction 1.	

Reaction 1.	

	  1.000e-12 moles of the following reaction have been added:

	                 Relative
	Reactant            moles

	Fe1S3                1.00000

	                 Relative
	Element             moles
	Fe                   1.00000
	S                    3.00000

-------------------------------Phase assemblage--------------------------------

                                                      Moles in assemblage
Phase               SI  log IAP  log K(T, P)   Initial       Final       Delta

Greigite          6.72     0.00     -6.72    0.000e+00           0   0.000e+00
Mackinawite     -32.58   -34.72     -2.14    0.000e+00           0   0.000e+00
Pyrite           10.07     0.00    -10.07    0.000e+00           0   0.000e+00
Pyrrhotite      -31.47   -34.72     -3.25    0.000e+00           0   0.000e+00

-----------------------------Solution composition------------------------------

	Elements           Molality       Moles

	Fe                1.000e-12   1.000e-12
	S                 3.000e-12   3.000e-12

----------------------------Description of solution----------------------------

                                       pH  =   7.081      Charge balance
                                       pe  =  -9.290      Adjusted to redox equilibrium
                        Activity of water  =   0.685
                 Ionic strength (mol/kgw)  =   8.299e-08
                       Mass of water (kg)  =   1.000e+00
                 Total alkalinity (eq/kg)  =   7.000e-12
                         Temperature (°C)  =  25.00
                  Electrical balance (eq)  =  -3.868e-16
 Percent error, 100*(Cat-|An|)/(Cat+|An|)  =  -0.00
                               Iterations  =  49
                                  Total H  = 1.480613e+02
                                  Total O  = 5.550622e+01

----------------------------Distribution of species----------------------------

                                               Log       Log       Log    mole V
   Species          Molality    Activity  Molality  Activity     Gamma    cm³/mol

   OH-             8.299e-08   8.296e-08    -7.081    -7.081    -0.000     (0)  
   H+              8.299e-08   8.296e-08    -7.081    -7.081    -0.000      0.00
   H2O             5.551e+01   6.851e-01     1.744    -0.164     0.000     18.07
Fe(2)         1.000e-12
   Fe+2            9.974e-13   9.960e-13   -12.001   -12.002    -0.001     (0)  
   FeOH+           2.602e-15   2.601e-15   -14.585   -14.585    -0.000     (0)  
   Fe(OH)2         1.828e-19   1.828e-19   -18.738   -18.738     0.000     (0)  
   Fe(OH)3-        5.611e-23   5.609e-23   -22.251   -22.251    -0.000     (0)  
   Fe(HS)2         0.000e+00   0.000e+00   -62.643   -62.643     0.000     (0)  
   FeSO4           0.000e+00   0.000e+00   -84.454   -84.454     0.000     (0)  
   Fe(HS)3-        0.000e+00   0.000e+00   -90.401   -90.401    -0.000     (0)  
Fe(3)         7.650e-27
   Fe(OH)2+        6.921e-27   6.919e-27   -26.160   -26.160    -0.000     (0)  
   Fe(OH)3         6.713e-28   6.713e-28   -27.173   -27.173     0.000     (0)  
   Fe(OH)4-        5.545e-29   5.543e-29   -28.256   -28.256    -0.000     (0)  
   FeOH+2          2.534e-30   2.530e-30   -29.596   -29.597    -0.001     (0)  
   Fe+3            4.760e-35   4.745e-35   -34.322   -34.324    -0.001     (0)  
   Fe2(OH)2+4      0.000e+00   0.000e+00   -57.761   -57.764    -0.002     (0)  
   Fe3(OH)4+5      0.000e+00   0.000e+00   -81.600   -81.604    -0.004     (0)  
   FeSO4+          0.000e+00   0.000e+00  -105.106  -105.106    -0.000     (0)  
   Fe(SO4)2-       0.000e+00   0.000e+00  -178.308  -178.308    -0.000     (0)  
H(0)          3.705e+01
   H2              1.852e+01   1.852e+01     1.268     1.268     0.000     (0)  
O(0)          0.000e+00
   O2              0.000e+00   0.000e+00   -95.244   -95.244     0.000     (0)  
S(-2)         3.000e-12
   S6-2            5.000e-13   4.993e-13   -12.301   -12.302    -0.001     (0)  
   S5-2            1.227e-17   1.226e-17   -16.911   -16.912    -0.001     (0)  
   S4-2            5.000e-22   4.993e-22   -21.301   -21.302    -0.001     (0)  
   S3-2            1.228e-26   1.226e-26   -25.911   -25.912    -0.001     (0)  
   HS-             1.602e-30   1.601e-30   -29.795   -29.795    -0.000     (0)  
   H2S             1.162e-30   1.162e-30   -29.935   -29.935     0.000     (0)  
   S-2             2.335e-36   2.332e-36   -35.632   -35.632    -0.001     (0)  
   Fe(HS)2         0.000e+00   0.000e+00   -62.643   -62.643     0.000     (0)  
   Fe(HS)3-        0.000e+00   0.000e+00   -90.401   -90.401    -0.000     (0)  
S(6)          0.000e+00
   SO4-2           0.000e+00   0.000e+00   -74.702   -74.702    -0.001     (0)  
   HSO4-           0.000e+00   0.000e+00   -79.796   -79.797    -0.000     (0)  
   FeSO4           0.000e+00   0.000e+00   -84.454   -84.454     0.000     (0)  
   FeSO4+          0.000e+00   0.000e+00  -105.106  -105.106    -0.000     (0)  
   Fe(SO4)2-       0.000e+00   0.000e+00  -178.308  -178.308    -0.000     (0)  

------------------------------Saturation indices-------------------------------

  Phase               SI** log IAP   log K(298 K,   1 atm)

  Fe2(SO4)3      -296.33   -292.75    3.58  Fe2(SO4)3
  Fe3(OH)8        -45.54    -25.31   20.22  Fe3(OH)8
  Ferrihydrite    -18.46    -13.57    4.89  Fe(OH)3
  FeS(ppt)        -30.80    -34.72   -3.92  FeS
  Goethite        -13.91    -13.41    0.50  FeOOH
  Greigite        -86.41   -145.44  -59.04  Fe3S4
  Hematite        -22.65    -26.65   -4.01  Fe2O3
  Jarosite-H     -206.02   -218.12  -12.10  (H3O)Fe3(SO4)2(OH)6
  Lepidocrocite   -14.78    -13.41    1.37  FeOOH
  Mackinawite     -32.58    -34.72   -2.14  FeS
  Maghemite       -33.04    -26.65    6.39  Fe2O3
  Magnetite       -28.39    -24.66    3.74  Fe3O4
  Melanterite     -85.38    -87.85   -2.47  FeSO4:7H2O
  O2(g)           -92.28     -9.16   83.12  O2
  pe_fix            9.29      9.29    0.00  e-
  pH_fix           -7.08     -7.08    0.00  H+
  Pyrite          -15.73    -76.01  -60.28  FeS2
  Pyrrhotite      -31.47    -34.72   -3.25  FeS
  Sulfur          -39.19    -54.21  -15.03  S

**For a gas, SI = log10(fugacity). Fugacity = pressure * phi / 1 atm.
  For ideal gases, phi = 1.

Reaction step 2.

Using solution 1.	PURE WATER
Using pure phase assemblage 1.	
Using reaction 1.	

Reaction 1.	

	  1.000e-12 moles of the following reaction have been added:

	                 Relative
	Reactant            moles

	Fe1S3                1.00000

	                 Relative
	Element             moles
	Fe                   1.00000
	S                    3.00000

-------------------------------Phase assemblage--------------------------------

                                                      Moles in assemblage
Phase               SI  log IAP  log K(T, P)   Initial       Final       Delta

Greigite          6.72     0.00     -6.72    0.000e+00           0   0.000e+00
Mackinawite     -32.23   -34.36     -2.14    0.000e+00           0   0.000e+00
Pyrite           10.07     0.00    -10.07    0.000e+00           0   0.000e+00
Pyrrhotite      -31.12   -34.36     -3.25    0.000e+00           0   0.000e+00

-----------------------------Solution composition------------------------------

	Elements           Molality       Moles

	Fe                2.000e-12   2.000e-12
	S                 6.000e-12   6.000e-12

----------------------------Description of solution----------------------------

                                       pH  =   7.081      Charge balance
                                       pe  =  -9.290      Adjusted to redox equilibrium
                        Activity of water  =   0.685
                 Ionic strength (mol/kgw)  =   8.299e-08
                       Mass of water (kg)  =   1.000e+00
                 Total alkalinity (eq/kg)  =   1.400e-11
                         Temperature (°C)  =  25.00
                  Electrical balance (eq)  =  -3.868e-16
 Percent error, 100*(Cat-|An|)/(Cat+|An|)  =  -0.00
                               Iterations  =   5
                                  Total H  = 1.480613e+02
                                  Total O  = 5.550622e+01

----------------------------Distribution of species----------------------------

                                               Log       Log       Log    mole V
   Species          Molality    Activity  Molality  Activity     Gamma    cm³/mol

   OH-             8.299e-08   8.296e-08    -7.081    -7.081    -0.000     (0)  
   H+              8.299e-08   8.296e-08    -7.081    -7.081    -0.000      0.00
   H2O             5.551e+01   6.851e-01     1.744    -0.164     0.000     18.07
Fe(2)         2.000e-12
   Fe+2            1.995e-12   1.992e-12   -11.700   -11.701    -0.001     (0)  
   FeOH+           5.204e-15   5.202e-15   -14.284   -14.284    -0.000     (0)  
   Fe(OH)2         3.657e-19   3.657e-19   -18.437   -18.437     0.000     (0)  
   Fe(OH)3-        1.122e-22   1.122e-22   -21.950   -21.950    -0.000     (0)  
   Fe(HS)2         0.000e+00   0.000e+00   -62.241   -62.241     0.000     (0)  
   FeSO4           0.000e+00   0.000e+00   -84.103   -84.103     0.000     (0)  
   Fe(HS)3-        0.000e+00   0.000e+00   -89.949   -89.950    -0.000     (0)  
Fe(3)         1.530e-26
   Fe(OH)2+        1.384e-26   1.384e-26   -25.859   -25.859    -0.000     (0)  
   Fe(OH)3         1.343e-27   1.343e-27   -26.872   -26.872     0.000     (0)  
   Fe(OH)4-        1.109e-28   1.109e-28   -27.955   -27.955    -0.000     (0)  
   FeOH+2          5.067e-30   5.060e-30   -29.295   -29.296    -0.001     (0)  
   Fe+3            9.520e-35   9.491e-35   -34.021   -34.023    -0.001     (0)  
   Fe2(OH)2+4      0.000e+00   0.000e+00   -57.159   -57.162    -0.002     (0)  
   Fe3(OH)4+5      0.000e+00   0.000e+00   -80.697   -80.701    -0.004     (0)  
   FeSO4+          0.000e+00   0.000e+00  -104.755  -104.755    -0.000     (0)  
   Fe(SO4)2-       0.000e+00   0.000e+00  -177.907  -177.907    -0.000     (0)  
H(0)          3.705e+01
   H2              1.852e+01   1.852e+01     1.268     1.268     0.000     (0)  
O(0)          0.000e+00
   O2              0.000e+00   0.000e+00   -95.244   -95.244     0.000     (0)  
S(-2)         6.000e-12
   S6-2            1.000e-12   9.986e-13   -12.000   -12.001    -0.001     (0)  
   S5-2            2.187e-17   2.184e-17   -16.660   -16.661    -0.001     (0)  
   S4-2            7.937e-22   7.926e-22   -21.100   -21.101    -0.001     (0)  
   S3-2            1.736e-26   1.734e-26   -25.760   -25.761    -0.001     (0)  
   HS-             1.798e-30   1.798e-30   -29.745   -29.745    -0.000     (0)  
   H2S             1.304e-30   1.304e-30   -29.885   -29.885     0.000     (0)  
   S-2             2.621e-36   2.617e-36   -35.582   -35.582    -0.001     (0)  
   Fe(HS)2         0.000e+00   0.000e+00   -62.241   -62.241     0.000     (0)  
   Fe(HS)3-        0.000e+00   0.000e+00   -89.949   -89.950    -0.000     (0)  
S(6)          0.000e+00
   SO4-2           0.000e+00   0.000e+00   -74.652   -74.652    -0.001     (0)  
   HSO4-           0.000e+00   0.000e+00   -79.746   -79.746    -0.000     (0)  
   FeSO4           0.000e+00   0.000e+00   -84.103   -84.103     0.000     (0)  
   FeSO4+          0.000e+00   0.000e+00  -104.755  -104.755    -0.000     (0)  
   Fe(SO4)2-       0.000e+00   0.000e+00  -177.907  -177.907    -0.000     (0)  

------------------------------Saturation indices-------------------------------

  Phase               SI** log IAP   log K(298 K,   1 atm)

  Fe2(SO4)3      -295.58   -292.00    3.58  Fe2(SO4)3
  Fe3(OH)8        -44.63    -24.41   20.22  Fe3(OH)8
  Ferrihydrite    -18.16    -13.27    4.89  Fe(OH)3
  FeS(ppt)        -30.45    -34.36   -3.92  FeS
  Goethite        -13.61    -13.11    0.50  FeOOH
  Greigite        -85.30   -144.34  -59.04  Fe3S4
  Hematite        -22.04    -26.05   -4.01  Fe2O3
  Jarosite-H     -205.02   -217.12  -12.10  (H3O)Fe3(SO4)2(OH)6
  Lepidocrocite   -14.48    -13.11    1.37  FeOOH
  Mackinawite     -32.23    -34.36   -2.14  FeS
  Maghemite       -32.44    -26.05    6.39  Fe2O3
  Magnetite       -27.49    -23.75    3.74  Fe3O4
  Melanterite     -85.03    -87.50   -2.47  FeSO4:7H2O
  O2(g)           -92.28     -9.16   83.12  O2
  pe_fix            9.29      9.29    0.00  e-
  pH_fix           -7.08     -7.08    0.00  H+
  Pyrite          -15.33    -75.61  -60.28  FeS2
  Pyrrhotite      -31.12    -34.36   -3.25  FeS
  Sulfur          -39.14    -54.16  -15.03  S

**For a gas, SI = log10(fugacity). Fugacity = pressure * phi / 1 atm.
  For ideal gases, phi = 1.

Reaction step 3.

Using solution 1.	PURE WATER
Using pure phase assemblage 1.	
Using reaction 1.	

Reaction 1.	

	  1.000e-12 moles of the following reaction have been added:

	                 Relative
	Reactant            moles

	Fe1S3                1.00000

	                 Relative
	Element             moles
	Fe                   1.00000
	S                    3.00000

-------------------------------Phase assemblage--------------------------------

                                                      Moles in assemblage
Phase               SI  log IAP  log K(T, P)   Initial       Final       Delta

Greigite          6.72     0.00     -6.72    0.000e+00           0   0.000e+00
Mackinawite     -32.02   -34.16     -2.14    0.000e+00           0   0.000e+00
Pyrite           10.07     0.00    -10.07    0.000e+00           0   0.000e+00
Pyrrhotite      -30.91   -34.16     -3.25    0.000e+00           0   0.000e+00

-----------------------------Solution composition------------------------------

	Elements           Molality       Moles

	Fe                3.000e-12   3.000e-12
	S                 9.000e-12   9.000e-12

----------------------------Description of solution----------------------------

                                       pH  =   7.081      Charge balance
                                       pe  =  -9.290      Adjusted to redox equilibrium
                        Activity of water  =   0.685
                 Ionic strength (mol/kgw)  =   8.300e-08
                       Mass of water (kg)  =   1.000e+00
                 Total alkalinity (eq/kg)  =   2.100e-11
                         Temperature (°C)  =  25.00
                  Electrical balance (eq)  =  -3.868e-16
 Percent error, 100*(Cat-|An|)/(Cat+|An|)  =  -0.00
                               Iterations  =   4
                                  Total H  = 1.480613e+02
                                  Total O  = 5.550622e+01

----------------------------Distribution of species----------------------------

                                               Log       Log       Log    mole V
   Species          Molality    Activity  Molality  Activity     Gamma    cm³/mol

   OH-             8.299e-08   8.296e-08    -7.081    -7.081    -0.000     (0)  
   H+              8.299e-08   8.296e-08    -7.081    -7.081    -0.000      0.00
   H2O             5.551e+01   6.851e-01     1.744    -0.164     0.000     18.07
Fe(2)         3.000e-12
   Fe+2            2.992e-12   2.988e-12   -11.524   -11.525    -0.001     (0)  
   FeOH+           7.806e-15   7.803e-15   -14.108   -14.108    -0.000     (0)  
   Fe(OH)2         5.485e-19   5.485e-19   -18.261   -18.261     0.000     (0)  
   Fe(OH)3-        1.683e-22   1.683e-22   -21.774   -21.774    -0.000     (0)  
   Fe(HS)2         0.000e+00   0.000e+00   -62.007   -62.007     0.000     (0)  
   FeSO4           0.000e+00   0.000e+00   -83.897   -83.897     0.000     (0)  
   Fe(HS)3-        0.000e+00   0.000e+00   -89.685   -89.685    -0.000     (0)  
Fe(3)         2.295e-26
   Fe(OH)2+        2.076e-26   2.076e-26   -25.683   -25.683    -0.000     (0)  
   Fe(OH)3         2.014e-27   2.014e-27   -26.696   -26.696     0.000     (0)  
   Fe(OH)4-        1.664e-28   1.663e-28   -27.779   -27.779    -0.000     (0)  
   FeOH+2          7.601e-30   7.591e-30   -29.119   -29.120    -0.001     (0)  
   Fe+3            1.428e-34   1.424e-34   -33.845   -33.847    -0.001     (0)  
   Fe2(OH)2+4      0.000e+00   0.000e+00   -56.807   -56.809    -0.002     (0)  
   Fe3(OH)4+5      0.000e+00   0.000e+00   -80.169   -80.172    -0.004     (0)  
   FeSO4+          0.000e+00   0.000e+00  -104.549  -104.549    -0.000     (0)  
   Fe(SO4)2-       0.000e+00   0.000e+00  -177.672  -177.672    -0.000     (0)  
H(0)          3.705e+01
   H2              1.852e+01   1.852e+01     1.268     1.268     0.000     (0)  
O(0)          0.000e+00
   O2              0.000e+00   0.000e+00   -95.244   -95.244     0.000     (0)  
S(-2)         9.000e-12
   S6-2            1.500e-12   1.498e-12   -11.824   -11.825    -0.001     (0)  
   S5-2            3.066e-17   3.062e-17   -16.513   -16.514    -0.001     (0)  
   S4-2            1.040e-21   1.039e-21   -20.983   -20.984    -0.001     (0)  
   S3-2            2.126e-26   2.123e-26   -25.672   -25.673    -0.001     (0)  
   HS-             1.924e-30   1.923e-30   -29.716   -29.716    -0.000     (0)  
   H2S             1.395e-30   1.395e-30   -29.855   -29.855     0.000     (0)  
   S-2             2.804e-36   2.800e-36   -35.552   -35.553    -0.001     (0)  
   Fe(HS)2         0.000e+00   0.000e+00   -62.007   -62.007     0.000     (0)  
   Fe(HS)3-        0.000e+00   0.000e+00   -89.685   -89.685    -0.000     (0)  
S(6)          0.000e+00
   SO4-2           0.000e+00   0.000e+00   -74.622   -74.623    -0.001     (0)  
   HSO4-           0.000e+00   0.000e+00   -79.717   -79.717    -0.000     (0)  
   FeSO4           0.000e+00   0.000e+00   -83.897   -83.897     0.000     (0)  
   FeSO4+          0.000e+00   0.000e+00  -104.549  -104.549    -0.000     (0)  
   Fe(SO4)2-       0.000e+00   0.000e+00  -177.672  -177.672    -0.000     (0)  

------------------------------Saturation indices-------------------------------

  Phase               SI** log IAP   log K(298 K,   1 atm)

  Fe2(SO4)3      -295.14   -291.56    3.58  Fe2(SO4)3
  Fe3(OH)8        -44.10    -23.88   20.22  Fe3(OH)8
  Ferrihydrite    -17.99    -13.10    4.89  Fe(OH)3
  FeS(ppt)        -30.24    -34.16   -3.92  FeS
  Goethite        -13.43    -12.93    0.50  FeOOH
  Greigite        -84.66   -143.69  -59.04  Fe3S4
  Hematite        -21.69    -25.70   -4.01  Fe2O3
  Jarosite-H     -204.43   -216.53  -12.10  (H3O)Fe3(SO4)2(OH)6
  Lepidocrocite   -14.30    -12.93    1.37  FeOOH
  Mackinawite     -32.02    -34.16   -2.14  FeS
  Maghemite       -32.09    -25.70    6.39  Fe2O3
  Magnetite       -26.96    -23.23    3.74  Fe3O4
  Melanterite     -84.83    -87.30   -2.47  FeSO4:7H2O
  O2(g)           -92.28     -9.16   83.12  O2
  pe_fix            9.29      9.29    0.00  e-
  pH_fix           -7.08     -7.08    0.00  H+
  Pyrite          -15.09    -75.37  -60.28  FeS2
  Pyrrhotite      -30.91    -34.16   -3.25  FeS
  Sulfur          -39.11    -54.13  -15.03  S

**For a gas, SI = log10(fugacity). Fugacity = pressure * phi / 1 atm.
  For ideal gases, phi = 1.

Reaction step 4.

Using solution 1.	PURE WATER
Using pure phase assemblage 1.	
Using reaction 1.	

Reaction 1.	

	  1.000e-12 moles of the following reaction have been added:

	                 Relative
	Reactant            moles

	Fe1S3                1.00000

	                 Relative
	Element             moles
	Fe                   1.00000
	S                    3.00000

-------------------------------Phase assemblage--------------------------------

                                                      Moles in assemblage
Phase               SI  log IAP  log K(T, P)   Initial       Final       Delta

Greigite          6.72     0.00     -6.72    0.000e+00           0   0.000e+00
Mackinawite     -31.88   -34.01     -2.14    0.000e+00           0   0.000e+00
Pyrite           10.07     0.00    -10.07    0.000e+00           0   0.000e+00
Pyrrhotite      -30.77   -34.01     -3.25    0.000e+00           0   0.000e+00

-----------------------------Solution composition------------------------------

	Elements           Molality       Moles

	Fe                4.000e-12   4.000e-12
	S                 1.200e-11   1.200e-11

----------------------------Description of solution----------------------------

                                       pH  =   7.081      Charge balance
                                       pe  =  -9.290      Adjusted to redox equilibrium
                        Activity of water  =   0.685
                 Ionic strength (mol/kgw)  =   8.300e-08
                       Mass of water (kg)  =   1.000e+00
                 Total alkalinity (eq/kg)  =   2.800e-11
                         Temperature (°C)  =  25.00
                  Electrical balance (eq)  =  -3.868e-16
 Percent error, 100*(Cat-|An|)/(Cat+|An|)  =  -0.00
                               Iterations  =   4
                                  Total H  = 1.480613e+02
                                  Total O  = 5.550622e+01

----------------------------Distribution of species----------------------------

                                               Log       Log       Log    mole V
   Species          Molality    Activity  Molality  Activity     Gamma    cm³/mol

   OH-             8.299e-08   8.296e-08    -7.081    -7.081    -0.000     (0)  
   H+              8.299e-08   8.296e-08    -7.081    -7.081    -0.000      0.00
   H2O             5.551e+01   6.851e-01     1.744    -0.164     0.000     18.07
Fe(2)         4.000e-12
   Fe+2            3.990e-12   3.984e-12   -11.399   -11.400    -0.001     (0)  
   FeOH+           1.041e-14   1.040e-14   -13.983   -13.983    -0.000     (0)  
   Fe(OH)2         7.313e-19   7.313e-19   -18.136   -18.136     0.000     (0)  
   Fe(OH)3-        2.245e-22   2.244e-22   -21.649   -21.649    -0.000     (0)  
   Fe(HS)2         0.000e+00   0.000e+00   -61.840   -61.840     0.000     (0)  
   FeSO4           0.000e+00   0.000e+00   -83.752   -83.752     0.000     (0)  
   Fe(HS)3-        0.000e+00   0.000e+00   -89.498   -89.498    -0.000     (0)  
Fe(3)         3.060e-26
   Fe(OH)2+        2.768e-26   2.768e-26   -25.558   -25.558    -0.000     (0)  
   Fe(OH)3         2.685e-27   2.685e-27   -26.571   -26.571     0.000     (0)  
   Fe(OH)4-        2.218e-28   2.217e-28   -27.654   -27.654    -0.000     (0)  
   FeOH+2          1.013e-29   1.012e-29   -28.994   -28.995    -0.001     (0)  
   Fe+3            1.904e-34   1.898e-34   -33.720   -33.722    -0.001     (0)  
   Fe2(OH)2+4      0.000e+00   0.000e+00   -56.557   -56.560    -0.002     (0)  
   Fe3(OH)4+5      0.000e+00   0.000e+00   -79.794   -79.797    -0.004     (0)  
   FeSO4+          0.000e+00   0.000e+00  -104.404  -104.404    -0.000     (0)  
   Fe(SO4)2-       0.000e+00   0.000e+00  -177.506  -177.506    -0.000     (0)  
H(0)          3.705e+01
   H2              1.852e+01   1.852e+01     1.268     1.268     0.000     (0)  
O(0)          0.000e+00
   O2              0.000e+00   0.000e+00   -95.244   -95.244     0.000     (0)  
S(-2)         1.200e-11
   S6-2            2.000e-12   1.997e-12   -11.699   -11.700    -0.001     (0)  
   S5-2            3.897e-17   3.892e-17   -16.409   -16.410    -0.001     (0)  
   S4-2            1.260e-21   1.258e-21   -20.900   -20.900    -0.001     (0)  
   S3-2            2.455e-26   2.452e-26   -25.610   -25.611    -0.001     (0)  
   HS-             2.018e-30   2.018e-30   -29.695   -29.695    -0.000     (0)  
   H2S             1.464e-30   1.464e-30   -29.835   -29.835     0.000     (0)  
   S-2             2.942e-36   2.938e-36   -35.531   -35.532    -0.001     (0)  
   Fe(HS)2         0.000e+00   0.000e+00   -61.840   -61.840     0.000     (0)  
   Fe(HS)3-        0.000e+00   0.000e+00   -89.498   -89.498    -0.000     (0)  
S(6)          0.000e+00
   SO4-2           0.000e+00   0.000e+00   -74.601   -74.602    -0.001     (0)  
   HSO4-           0.000e+00   0.000e+00   -79.696   -79.696    -0.000     (0)  
   FeSO4           0.000e+00   0.000e+00   -83.752   -83.752     0.000     (0)  
   FeSO4+          0.000e+00   0.000e+00  -104.404  -104.404    -0.000     (0)  
   Fe(SO4)2-       0.000e+00   0.000e+00  -177.506  -177.506    -0.000     (0)  

------------------------------Saturation indices-------------------------------

  Phase               SI** log IAP   log K(298 K,   1 atm)

  Fe2(SO4)3      -294.83   -291.25    3.58  Fe2(SO4)3
  Fe3(OH)8        -43.73    -23.51   20.22  Fe3(OH)8
  Ferrihydrite    -17.86    -12.97    4.89  Fe(OH)3
  FeS(ppt)        -30.10    -34.01   -3.92  FeS
  Goethite        -13.31    -12.81    0.50  FeOOH
  Greigite        -84.20   -143.23  -59.04  Fe3S4
  Hematite        -21.44    -25.45   -4.01  Fe2O3
  Jarosite-H     -204.01   -216.11  -12.10  (H3O)Fe3(SO4)2(OH)6
  Lepidocrocite   -14.18    -12.81    1.37  FeOOH
  Mackinawite     -31.88    -34.01   -2.14  FeS
  Maghemite       -31.84    -25.45    6.39  Fe2O3
  Magnetite       -26.59    -22.85    3.74  Fe3O4
  Melanterite     -84.68    -87.15   -2.47  FeSO4:7H2O
  O2(g)           -92.28     -9.16   83.12  O2
  pe_fix            9.29      9.29    0.00  e-
  pH_fix           -7.08     -7.08    0.00  H+
  Pyrite          -14.92    -75.21  -60.28  FeS2
  Pyrrhotite      -30.77    -34.01   -3.25  FeS
  Sulfur          -39.09    -54.11  -15.03  S

**For a gas, SI = log10(fugacity). Fugacity = pressure * phi / 1 atm.
  For ideal gases, phi = 1.

Reaction step 5.

Using solution 1.	PURE WATER
Using pure phase assemblage 1.	
Using reaction 1.	

Reaction 1.	

	  1.000e-12 moles of the following reaction have been added:

	                 Relative
	Reactant            moles

	Fe1S3                1.00000

	                 Relative
	Element             moles
	Fe                   1.00000
	S                    3.00000

-------------------------------Phase assemblage--------------------------------

                                                      Moles in assemblage
Phase               SI  log IAP  log K(T, P)   Initial       Final       Delta

Greigite          6.72     0.00     -6.72    0.000e+00           0   0.000e+00
Mackinawite     -31.76   -33.90     -2.14    0.000e+00           0   0.000e+00
Pyrite           10.07     0.00    -10.07    0.000e+00           0   0.000e+00
Pyrrhotite      -30.66   -33.90     -3.25    0.000e+00           0   0.000e+00

-----------------------------Solution composition------------------------------

	Elements           Molality       Moles

	Fe                5.000e-12   5.000e-12
	S                 1.500e-11   1.500e-11

----------------------------Description of solution----------------------------

                                       pH  =   7.081      Charge balance
                                       pe  =  -9.290      Adjusted to redox equilibrium
                        Activity of water  =   0.685
                 Ionic strength (mol/kgw)  =   8.300e-08
                       Mass of water (kg)  =   1.000e+00
                 Total alkalinity (eq/kg)  =   3.500e-11
                         Temperature (°C)  =  25.00
                  Electrical balance (eq)  =  -3.865e-16
 Percent error, 100*(Cat-|An|)/(Cat+|An|)  =  -0.00
                               Iterations  =   3
                                  Total H  = 1.480613e+02
                                  Total O  = 5.550622e+01

----------------------------Distribution of species----------------------------

                                               Log       Log       Log    mole V
   Species          Molality    Activity  Molality  Activity     Gamma    cm³/mol

   OH-             8.299e-08   8.296e-08    -7.081    -7.081    -0.000     (0)  
   H+              8.299e-08   8.296e-08    -7.081    -7.081    -0.000      0.00
   H2O             5.551e+01   6.851e-01     1.744    -0.164     0.000     18.07
Fe(2)         5.000e-12
   Fe+2            4.987e-12   4.980e-12   -11.302   -11.303    -0.001     (0)  
   FeOH+           1.301e-14   1.301e-14   -13.886   -13.886    -0.000     (0)  
   Fe(OH)2         9.142e-19   9.142e-19   -18.039   -18.039     0.000     (0)  
   Fe(OH)3-        2.806e-22   2.805e-22   -21.552   -21.552    -0.000     (0)  
   Fe(HS)2         0.000e+00   0.000e+00   -61.711   -61.711     0.000     (0)  
   FeSO4           0.000e+00   0.000e+00   -83.639   -83.639     0.000     (0)  
   Fe(HS)3-        0.000e+00   0.000e+00   -89.353   -89.353    -0.000     (0)  
Fe(3)         3.825e-26
   Fe(OH)2+        3.461e-26   3.459e-26   -25.461   -25.461    -0.000     (0)  
   Fe(OH)3         3.357e-27   3.357e-27   -26.474   -26.474     0.000     (0)  
   Fe(OH)4-        2.773e-28   2.772e-28   -27.557   -27.557    -0.000     (0)  
   FeOH+2          1.267e-29   1.265e-29   -28.897   -28.898    -0.001     (0)  
   Fe+3            2.380e-34   2.373e-34   -33.623   -33.625    -0.001     (0)  
   Fe2(OH)2+4      0.000e+00   0.000e+00   -56.363   -56.366    -0.002     (0)  
   Fe3(OH)4+5      0.000e+00   0.000e+00   -79.503   -79.507    -0.004     (0)  
   FeSO4+          0.000e+00   0.000e+00  -104.290  -104.291    -0.000     (0)  
   Fe(SO4)2-       0.000e+00   0.000e+00  -177.376  -177.376    -0.000     (0)  
H(0)          3.705e+01
   H2              1.852e+01   1.852e+01     1.268     1.268     0.000     (0)  
O(0)          0.000e+00
   O2              0.000e+00   0.000e+00   -95.244   -95.244     0.000     (0)  
S(-2)         1.500e-11
   S6-2            2.500e-12   2.497e-12   -11.602   -11.603    -0.001     (0)  
   S5-2            4.693e-17   4.687e-17   -16.329   -16.329    -0.001     (0)  
   S4-2            1.462e-21   1.460e-21   -20.835   -20.836    -0.001     (0)  
   S3-2            2.745e-26   2.741e-26   -25.561   -25.562    -0.001     (0)  
   HS-             2.095e-30   2.094e-30   -29.679   -29.679    -0.000     (0)  
   H2S             1.519e-30   1.519e-30   -29.818   -29.818     0.000     (0)  
   S-2             3.053e-36   3.049e-36   -35.515   -35.516    -0.001     (0)  
   Fe(HS)2         0.000e+00   0.000e+00   -61.711   -61.711     0.000     (0)  
   Fe(HS)3-        0.000e+00   0.000e+00   -89.353   -89.353    -0.000     (0)  
S(6)          0.000e+00
   SO4-2           0.000e+00   0.000e+00   -74.585   -74.586    -0.001     (0)  
   HSO4-           0.000e+00   0.000e+00   -79.680   -79.680    -0.000     (0)  
   FeSO4           0.000e+00   0.000e+00   -83.639   -83.639     0.000     (0)  
   FeSO4+          0.000e+00   0.000e+00  -104.290  -104.291    -0.000     (0)  
   Fe(SO4)2-       0.000e+00   0.000e+00  -177.376  -177.376    -0.000     (0)  

------------------------------Saturation indices-------------------------------

  Phase               SI** log IAP   log K(298 K,   1 atm)

  Fe2(SO4)3      -294.59   -291.01    3.58  Fe2(SO4)3
  Fe3(OH)8        -43.44    -23.22   20.22  Fe3(OH)8
  Ferrihydrite    -17.77    -12.87    4.89  Fe(OH)3
  FeS(ppt)        -29.99    -33.90   -3.92  FeS
  Goethite        -13.21    -12.71    0.50  FeOOH
  Greigite        -83.84   -142.88  -59.04  Fe3S4
  Hematite        -21.25    -25.26   -4.01  Fe2O3
  Jarosite-H     -203.69   -215.79  -12.10  (H3O)Fe3(SO4)2(OH)6
  Lepidocrocite   -14.08    -12.71    1.37  FeOOH
  Mackinawite     -31.76    -33.90   -2.14  FeS
  Maghemite       -31.64    -25.26    6.39  Fe2O3
  Magnetite       -26.30    -22.56    3.74  Fe3O4
  Melanterite     -84.57    -87.04   -2.47  FeSO4:7H2O
  O2(g)           -92.28     -9.16   83.12  O2
  pe_fix            9.29      9.29    0.00  e-
  pH_fix           -7.08     -7.08    0.00  H+
  Pyrite          -14.80    -75.08  -60.28  FeS2
  Pyrrhotite      -30.66    -33.90   -3.25  FeS
  Sulfur          -39.07    -54.10  -15.03  S

**For a gas, SI = log10(fugacity). Fugacity = pressure * phi / 1 atm.
  For ideal gases, phi = 1.

Reaction step 6.

Using solution 1.	PURE WATER
Using pure phase assemblage 1.	
Using reaction 1.	

Reaction 1.	

	  1.000e-12 moles of the following reaction have been added:

	                 Relative
	Reactant            moles

	Fe1S3                1.00000

	                 Relative
	Element             moles
	Fe                   1.00000
	S                    3.00000

-------------------------------Phase assemblage--------------------------------

                                                      Moles in assemblage
Phase               SI  log IAP  log K(T, P)   Initial       Final       Delta

Greigite          6.72     0.00     -6.72    0.000e+00           0   0.000e+00
Mackinawite     -31.67   -33.81     -2.14    0.000e+00           0   0.000e+00
Pyrite           10.07     0.00    -10.07    0.000e+00           0   0.000e+00
Pyrrhotite      -30.56   -33.81     -3.25    0.000e+00           0   0.000e+00

-----------------------------Solution composition------------------------------

	Elements           Molality       Moles

	Fe                6.000e-12   6.000e-12
	S                 1.800e-11   1.800e-11

----------------------------Description of solution----------------------------

                                       pH  =   7.081      Charge balance
                                       pe  =  -9.290      Adjusted to redox equilibrium
                        Activity of water  =   0.685
                 Ionic strength (mol/kgw)  =   8.301e-08
                       Mass of water (kg)  =   1.000e+00
                 Total alkalinity (eq/kg)  =   4.200e-11
                         Temperature (°C)  =  25.00
                  Electrical balance (eq)  =  -3.864e-16
 Percent error, 100*(Cat-|An|)/(Cat+|An|)  =  -0.00
                               Iterations  =   3
                                  Total H  = 1.480613e+02
                                  Total O  = 5.550622e+01

----------------------------Distribution of species----------------------------

                                               Log       Log       Log    mole V
   Species          Molality    Activity  Molality  Activity     Gamma    cm³/mol

   OH-             8.299e-08   8.296e-08    -7.081    -7.081    -0.000     (0)  
   H+              8.299e-08   8.296e-08    -7.081    -7.081    -0.000      0.00
   H2O             5.551e+01   6.851e-01     1.744    -0.164     0.000     18.07
Fe(2)         6.000e-12
   Fe+2            5.984e-12   5.976e-12   -11.223   -11.224    -0.001     (0)  
   FeOH+           1.561e-14   1.561e-14   -13.807   -13.807    -0.000     (0)  
   Fe(OH)2         1.097e-18   1.097e-18   -17.960   -17.960     0.000     (0)  
   Fe(OH)3-        3.367e-22   3.366e-22   -21.473   -21.473    -0.000     (0)  
   Fe(HS)2         0.000e+00   0.000e+00   -61.605   -61.605     0.000     (0)  
   FeSO4           0.000e+00   0.000e+00   -83.546   -83.546     0.000     (0)  
   Fe(HS)3-        0.000e+00   0.000e+00   -89.234   -89.234    -0.000     (0)  
Fe(3)         4.590e-26
   Fe(OH)2+        4.153e-26   4.151e-26   -25.382   -25.382    -0.000     (0)  
   Fe(OH)3         4.028e-27   4.028e-27   -26.395   -26.395     0.000     (0)  
   Fe(OH)4-        3.327e-28   3.326e-28   -27.478   -27.478    -0.000     (0)  
   FeOH+2          1.520e-29   1.518e-29   -28.818   -28.819    -0.001     (0)  
   Fe+3            2.856e-34   2.847e-34   -33.544   -33.546    -0.001     (0)  
   Fe2(OH)2+4      0.000e+00   0.000e+00   -56.205   -56.207    -0.002     (0)  
   Fe3(OH)4+5      0.000e+00   0.000e+00   -79.266   -79.269    -0.004     (0)  
   FeSO4+          0.000e+00   0.000e+00  -104.198  -104.198    -0.000     (0)  
   Fe(SO4)2-       0.000e+00   0.000e+00  -177.271  -177.271    -0.000     (0)  
H(0)          3.705e+01
   H2              1.852e+01   1.852e+01     1.268     1.268     0.000     (0)  
O(0)          0.000e+00
   O2              0.000e+00   0.000e+00   -95.244   -95.244     0.000     (0)  
S(-2)         1.800e-11
   S6-2            3.000e-12   2.996e-12   -11.523   -11.523    -0.001     (0)  
   S5-2            5.464e-17   5.456e-17   -16.263   -16.263    -0.001     (0)  
   S4-2            1.651e-21   1.649e-21   -20.782   -20.783    -0.001     (0)  
   S3-2            3.007e-26   3.003e-26   -25.522   -25.522    -0.001     (0)  
   HS-             2.160e-30   2.159e-30   -29.666   -29.666    -0.000     (0)  
   H2S             1.566e-30   1.566e-30   -29.805   -29.805     0.000     (0)  
   S-2             3.147e-36   3.143e-36   -35.502   -35.503    -0.001     (0)  
   Fe(HS)2         0.000e+00   0.000e+00   -61.605   -61.605     0.000     (0)  
   Fe(HS)3-        0.000e+00   0.000e+00   -89.234   -89.234    -0.000     (0)  
S(6)          0.000e+00
   SO4-2           0.000e+00   0.000e+00   -74.572   -74.573    -0.001     (0)  
   HSO4-           0.000e+00   0.000e+00   -79.667   -79.667    -0.000     (0)  
   FeSO4           0.000e+00   0.000e+00   -83.546   -83.546     0.000     (0)  
   FeSO4+          0.000e+00   0.000e+00  -104.198  -104.198    -0.000     (0)  
   Fe(SO4)2-       0.000e+00   0.000e+00  -177.271  -177.271    -0.000     (0)  

------------------------------Saturation indices-------------------------------

  Phase               SI** log IAP   log K(298 K,   1 atm)

  Fe2(SO4)3      -294.39   -290.81    3.58  Fe2(SO4)3
  Fe3(OH)8        -43.20    -22.98   20.22  Fe3(OH)8
  Ferrihydrite    -17.69    -12.79    4.89  Fe(OH)3
  FeS(ppt)        -29.89    -33.81   -3.92  FeS
  Goethite        -13.13    -12.63    0.50  FeOOH
  Greigite        -83.55   -142.59  -59.04  Fe3S4
  Hematite        -21.09    -25.10   -4.01  Fe2O3
  Jarosite-H     -203.43   -215.53  -12.10  (H3O)Fe3(SO4)2(OH)6
  Lepidocrocite   -14.00    -12.63    1.37  FeOOH
  Mackinawite     -31.67    -33.81   -2.14  FeS
  Maghemite       -31.48    -25.10    6.39  Fe2O3
  Magnetite       -26.06    -22.32    3.74  Fe3O4
  Melanterite     -84.48    -86.95   -2.47  FeSO4:7H2O
  O2(g)           -92.28     -9.16   83.12  O2
  pe_fix            9.29      9.29    0.00  e-
  pH_fix           -7.08     -7.08    0.00  H+
  Pyrite          -14.69    -74.97  -60.28  FeS2
  Pyrrhotite      -30.56    -33.81   -3.25  FeS
  Sulfur          -39.06    -54.08  -15.03  S

**For a gas, SI = log10(fugacity). Fugacity = pressure * phi / 1 atm.
  For ideal gases, phi = 1.

Reaction step 7.

Using solution 1.	PURE WATER
Using pure phase assemblage 1.	
Using reaction 1.	

Reaction 1.	

	  1.000e-12 moles of the following reaction have been added:

	                 Relative
	Reactant            moles

	Fe1S3                1.00000

	                 Relative
	Element             moles
	Fe                   1.00000
	S                    3.00000

-------------------------------Phase assemblage--------------------------------

                                                      Moles in assemblage
Phase               SI  log IAP  log K(T, P)   Initial       Final       Delta

Greigite          6.72     0.00     -6.72    0.000e+00           0   0.000e+00
Mackinawite     -31.59   -33.73     -2.14    0.000e+00           0   0.000e+00
Pyrite           10.07     0.00    -10.07    0.000e+00           0   0.000e+00
Pyrrhotite      -30.48   -33.73     -3.25    0.000e+00           0   0.000e+00

-----------------------------Solution composition------------------------------

	Elements           Molality       Moles

	Fe                7.000e-12   7.000e-12
	S                 2.100e-11   2.100e-11

----------------------------Description of solution----------------------------

                                       pH  =   7.081      Charge balance
                                       pe  =  -9.290      Adjusted to redox equilibrium
                        Activity of water  =   0.685
                 Ionic strength (mol/kgw)  =   8.301e-08
                       Mass of water (kg)  =   1.000e+00
                 Total alkalinity (eq/kg)  =   4.900e-11
                         Temperature (°C)  =  25.00
                  Electrical balance (eq)  =  -3.864e-16
 Percent error, 100*(Cat-|An|)/(Cat+|An|)  =  -0.00
                               Iterations  =   3
                                  Total H  = 1.480613e+02
                                  Total O  = 5.550622e+01

----------------------------Distribution of species----------------------------

                                               Log       Log       Log    mole V
   Species          Molality    Activity  Molality  Activity     Gamma    cm³/mol

   OH-             8.299e-08   8.296e-08    -7.081    -7.081    -0.000     (0)  
   H+              8.299e-08   8.296e-08    -7.081    -7.081    -0.000      0.00
   H2O             5.551e+01   6.851e-01     1.744    -0.164     0.000     18.07
Fe(2)         7.000e-12
   Fe+2            6.982e-12   6.972e-12   -11.156   -11.157    -0.001     (0)  
   FeOH+           1.821e-14   1.821e-14   -13.740   -13.740    -0.000     (0)  
   Fe(OH)2         1.280e-18   1.280e-18   -17.893   -17.893     0.000     (0)  
   Fe(OH)3-        3.928e-22   3.927e-22   -21.406   -21.406    -0.000     (0)  
   Fe(HS)2         0.000e+00   0.000e+00   -61.516   -61.516     0.000     (0)  
   FeSO4           0.000e+00   0.000e+00   -83.468   -83.468     0.000     (0)  
   Fe(HS)3-        0.000e+00   0.000e+00   -89.133   -89.133    -0.000     (0)  
Fe(3)         5.355e-26
   Fe(OH)2+        4.845e-26   4.843e-26   -25.315   -25.315    -0.000     (0)  
   Fe(OH)3         4.699e-27   4.699e-27   -26.328   -26.328     0.000     (0)  
   Fe(OH)4-        3.882e-28   3.881e-28   -27.411   -27.411    -0.000     (0)  
   FeOH+2          1.774e-29   1.771e-29   -28.751   -28.752    -0.001     (0)  
   Fe+3            3.332e-34   3.322e-34   -33.477   -33.479    -0.001     (0)  
   Fe2(OH)2+4      0.000e+00   0.000e+00   -56.071   -56.073    -0.002     (0)  
   Fe3(OH)4+5      0.000e+00   0.000e+00   -79.065   -79.068    -0.004     (0)  
   FeSO4+          0.000e+00   0.000e+00  -104.120  -104.120    -0.000     (0)  
   Fe(SO4)2-       0.000e+00   0.000e+00  -177.181  -177.182    -0.000     (0)  
H(0)          3.705e+01
   H2              1.852e+01   1.852e+01     1.268     1.268     0.000     (0)  
O(0)          0.000e+00
   O2              0.000e+00   0.000e+00   -95.244   -95.244     0.000     (0)  
S(-2)         2.100e-11
   S6-2            3.500e-12   3.495e-12   -11.456   -11.457    -0.001     (0)  
   S5-2            6.213e-17   6.204e-17   -16.207   -16.207    -0.001     (0)  
   S4-2            1.830e-21   1.827e-21   -20.738   -20.738    -0.001     (0)  
   S3-2            3.248e-26   3.243e-26   -25.488   -25.489    -0.001     (0)  
   HS-             2.216e-30   2.215e-30   -29.654   -29.655    -0.000     (0)  
   H2S             1.607e-30   1.607e-30   -29.794   -29.794     0.000     (0)  
   S-2             3.229e-36   3.225e-36   -35.491   -35.491    -0.001     (0)  
   Fe(HS)2         0.000e+00   0.000e+00   -61.516   -61.516     0.000     (0)  
   Fe(HS)3-        0.000e+00   0.000e+00   -89.133   -89.133    -0.000     (0)  
S(6)          0.000e+00
   SO4-2           0.000e+00   0.000e+00   -74.561   -74.561    -0.001     (0)  
   HSO4-           0.000e+00   0.000e+00   -79.656   -79.656    -0.000     (0)  
   FeSO4           0.000e+00   0.000e+00   -83.468   -83.468     0.000     (0)  
   FeSO4+          0.000e+00   0.000e+00  -104.120  -104.120    -0.000     (0)  
   Fe(SO4)2-       0.000e+00   0.000e+00  -177.181  -177.182    -0.000     (0)  

------------------------------Saturation indices-------------------------------

  Phase               SI** log IAP   log K(298 K,   1 atm)

  Fe2(SO4)3      -294.22   -290.64    3.58  Fe2(SO4)3
  Fe3(OH)8        -43.00    -22.78   20.22  Fe3(OH)8
  Ferrihydrite    -17.62    -12.73    4.89  Fe(OH)3
  FeS(ppt)        -29.82    -33.73   -3.92  FeS
  Goethite        -13.06    -12.56    0.50  FeOOH
  Greigite        -83.31   -142.34  -59.04  Fe3S4
  Hematite        -20.96    -24.96   -4.01  Fe2O3
  Jarosite-H     -203.20   -215.30  -12.10  (H3O)Fe3(SO4)2(OH)6
  Lepidocrocite   -13.93    -12.56    1.37  FeOOH
  Mackinawite     -31.59    -33.73   -2.14  FeS
  Maghemite       -31.35    -24.96    6.39  Fe2O3
  Magnetite       -25.86    -22.12    3.74  Fe3O4
  Melanterite     -84.40    -86.87   -2.47  FeSO4:7H2O
  O2(g)           -92.28     -9.16   83.12  O2
  pe_fix            9.29      9.29    0.00  e-
  pH_fix           -7.08     -7.08    0.00  H+
  Pyrite          -14.60    -74.88  -60.28  FeS2
  Pyrrhotite      -30.48    -33.73   -3.25  FeS
  Sulfur          -39.05    -54.07  -15.03  S

**For a gas, SI = log10(fugacity). Fugacity = pressure * phi / 1 atm.
  For ideal gases, phi = 1.

Reaction step 8.

Using solution 1.	PURE WATER
Using pure phase assemblage 1.	
Using reaction 1.	

Reaction 1.	

	  1.000e-12 moles of the following reaction have been added:

	                 Relative
	Reactant            moles

	Fe1S3                1.00000

	                 Relative
	Element             moles
	Fe                   1.00000
	S                    3.00000

-------------------------------Phase assemblage--------------------------------

                                                      Moles in assemblage
Phase               SI  log IAP  log K(T, P)   Initial       Final       Delta

Greigite          6.72     0.00     -6.72    0.000e+00           0   0.000e+00
Mackinawite     -31.53   -33.66     -2.14    0.000e+00           0   0.000e+00
Pyrite           10.07     0.00    -10.07    0.000e+00           0   0.000e+00
Pyrrhotite      -30.42   -33.66     -3.25    0.000e+00           0   0.000e+00

-----------------------------Solution composition------------------------------

	Elements           Molality       Moles

	Fe                8.000e-12   8.000e-12
	S                 2.400e-11   2.400e-11

----------------------------Description of solution----------------------------

                                       pH  =   7.081      Charge balance
                                       pe  =  -9.290      Adjusted to redox equilibrium
                        Activity of water  =   0.685
                 Ionic strength (mol/kgw)  =   8.301e-08
                       Mass of water (kg)  =   1.000e+00
                 Total alkalinity (eq/kg)  =   5.600e-11
                         Temperature (°C)  =  25.00
                  Electrical balance (eq)  =  -3.864e-16
 Percent error, 100*(Cat-|An|)/(Cat+|An|)  =  -0.00
                               Iterations  =   3
                                  Total H  = 1.480613e+02
                                  Total O  = 5.550622e+01

----------------------------Distribution of species----------------------------

                                               Log       Log       Log    mole V
   Species          Molality    Activity  Molality  Activity     Gamma    cm³/mol

   OH-             8.299e-08   8.296e-08    -7.081    -7.081    -0.000     (0)  
   H+              8.298e-08   8.296e-08    -7.081    -7.081    -0.000      0.00
   H2O             5.551e+01   6.851e-01     1.744    -0.164     0.000     18.07
Fe(2)         8.000e-12
   Fe+2            7.979e-12   7.968e-12   -11.098   -11.099    -0.001     (0)  
   FeOH+           2.082e-14   2.081e-14   -13.682   -13.682    -0.000     (0)  
   Fe(OH)2         1.463e-18   1.463e-18   -17.835   -17.835     0.000     (0)  
   Fe(OH)3-        4.489e-22   4.488e-22   -21.348   -21.348    -0.000     (0)  
   Fe(HS)2         0.000e+00   0.000e+00   -61.439   -61.439     0.000     (0)  
   FeSO4           0.000e+00   0.000e+00   -83.400   -83.400     0.000     (0)  
   Fe(HS)3-        0.000e+00   0.000e+00   -89.046   -89.046    -0.000     (0)  
Fe(3)         6.121e-26
   Fe(OH)2+        5.537e-26   5.535e-26   -25.257   -25.257    -0.000     (0)  
   Fe(OH)3         5.371e-27   5.371e-27   -26.270   -26.270     0.000     (0)  
   Fe(OH)4-        4.437e-28   4.435e-28   -27.353   -27.353    -0.000     (0)  
   FeOH+2          2.027e-29   2.024e-29   -28.693   -28.694    -0.001     (0)  
   Fe+3            3.808e-34   3.796e-34   -33.419   -33.421    -0.001     (0)  
   Fe2(OH)2+4      0.000e+00   0.000e+00   -55.955   -55.958    -0.002     (0)  
   Fe3(OH)4+5      0.000e+00   0.000e+00   -78.891   -78.894    -0.004     (0)  
   FeSO4+          0.000e+00   0.000e+00  -104.052  -104.052    -0.000     (0)  
   Fe(SO4)2-       0.000e+00   0.000e+00  -177.104  -177.104    -0.000     (0)  
H(0)          3.705e+01
   H2              1.852e+01   1.852e+01     1.268     1.268     0.000     (0)  
O(0)          0.000e+00
   O2              0.000e+00   0.000e+00   -95.244   -95.244     0.000     (0)  
S(-2)         2.400e-11
   S6-2            4.000e-12   3.995e-12   -11.398   -11.399    -0.001     (0)  
   S5-2            6.944e-17   6.934e-17   -16.158   -16.159    -0.001     (0)  
   S4-2            2.000e-21   1.997e-21   -20.699   -20.700    -0.001     (0)  
   S3-2            3.472e-26   3.467e-26   -25.459   -25.460    -0.001     (0)  
   HS-             2.266e-30   2.265e-30   -29.645   -29.645    -0.000     (0)  
   H2S             1.643e-30   1.643e-30   -29.784   -29.784     0.000     (0)  
   S-2             3.302e-36   3.298e-36   -35.481   -35.482    -0.001     (0)  
   Fe(HS)2         0.000e+00   0.000e+00   -61.439   -61.439     0.000     (0)  
   Fe(HS)3-        0.000e+00   0.000e+00   -89.046   -89.046    -0.000     (0)  
S(6)          0.000e+00
   SO4-2           0.000e+00   0.000e+00   -74.551   -74.552    -0.001     (0)  
   HSO4-           0.000e+00   0.000e+00   -79.646   -79.646    -0.000     (0)  
   FeSO4           0.000e+00   0.000e+00   -83.400   -83.400     0.000     (0)  
   FeSO4+          0.000e+00   0.000e+00  -104.052  -104.052    -0.000     (0)  
   Fe(SO4)2-       0.000e+00   0.000e+00  -177.104  -177.104    -0.000     (0)  

------------------------------Saturation indices-------------------------------

  Phase               SI** log IAP   log K(298 K,   1 atm)

  Fe2(SO4)3      -294.08   -290.50    3.58  Fe2(SO4)3
  Fe3(OH)8        -42.83    -22.60   20.22  Fe3(OH)8
  Ferrihydrite    -17.56    -12.67    4.89  Fe(OH)3
  FeS(ppt)        -29.75    -33.66   -3.92  FeS
  Goethite        -13.01    -12.51    0.50  FeOOH
  Greigite        -83.09   -142.13  -59.04  Fe3S4
  Hematite        -20.84    -24.85   -4.01  Fe2O3
  Jarosite-H     -203.01   -215.11  -12.10  (H3O)Fe3(SO4)2(OH)6
  Lepidocrocite   -13.88    -12.51    1.37  FeOOH
  Mackinawite     -31.53    -33.66   -2.14  FeS
  Maghemite       -31.23    -24.85    6.39  Fe2O3
  Magnetite       -25.68    -21.95    3.74  Fe3O4
  Melanterite     -84.33    -86.80   -2.47  FeSO4:7H2O
  O2(g)           -92.28     -9.16   83.12  O2
  pe_fix            9.29      9.29    0.00  e-
  pH_fix           -7.08     -7.08    0.00  H+
  Pyrite          -14.52    -74.81  -60.28  FeS2
  Pyrrhotite      -30.42    -33.66   -3.25  FeS
  Sulfur          -39.04    -54.06  -15.03  S

**For a gas, SI = log10(fugacity). Fugacity = pressure * phi / 1 atm.
  For ideal gases, phi = 1.

Reaction step 9.

Using solution 1.	PURE WATER
Using pure phase assemblage 1.	
Using reaction 1.	

Reaction 1.	

	  1.000e-12 moles of the following reaction have been added:

	                 Relative
	Reactant            moles

	Fe1S3                1.00000

	                 Relative
	Element             moles
	Fe                   1.00000
	S                    3.00000

-------------------------------Phase assemblage--------------------------------

                                                      Moles in assemblage
Phase               SI  log IAP  log K(T, P)   Initial       Final       Delta

Greigite          6.72     0.00     -6.72    0.000e+00           0   0.000e+00
Mackinawite     -31.47   -33.60     -2.14    0.000e+00           0   0.000e+00
Pyrite           10.07     0.00    -10.07    0.000e+00           0   0.000e+00
Pyrrhotite      -30.36   -33.60     -3.25    0.000e+00           0   0.000e+00

-----------------------------Solution composition------------------------------

	Elements           Molality       Moles

	Fe                9.000e-12   9.000e-12
	S                 2.700e-11   2.700e-11

----------------------------Description of solution----------------------------

                                       pH  =   7.081      Charge balance
                                       pe  =  -9.290      Adjusted to redox equilibrium
                        Activity of water  =   0.685
                 Ionic strength (mol/kgw)  =   8.302e-08
                       Mass of water (kg)  =   1.000e+00
                 Total alkalinity (eq/kg)  =   6.300e-11
                         Temperature (°C)  =  25.00
                  Electrical balance (eq)  =  -3.864e-16
 Percent error, 100*(Cat-|An|)/(Cat+|An|)  =  -0.00
                               Iterations  =   3
                                  Total H  = 1.480613e+02
                                  Total O  = 5.550622e+01

----------------------------Distribution of species----------------------------

                                               Log       Log       Log    mole V
   Species          Molality    Activity  Molality  Activity     Gamma    cm³/mol

   OH-             8.299e-08   8.297e-08    -7.081    -7.081    -0.000     (0)  
   H+              8.298e-08   8.296e-08    -7.081    -7.081    -0.000      0.00
   H2O             5.551e+01   6.851e-01     1.744    -0.164     0.000     18.07
Fe(2)         9.000e-12
   Fe+2            8.977e-12   8.964e-12   -11.047   -11.047    -0.001     (0)  
   FeOH+           2.342e-14   2.341e-14   -13.630   -13.631    -0.000     (0)  
   Fe(OH)2         1.646e-18   1.646e-18   -17.784   -17.784     0.000     (0)  
   Fe(OH)3-        5.051e-22   5.049e-22   -21.297   -21.297    -0.000     (0)  
   Fe(HS)2         0.000e+00   0.000e+00   -61.370   -61.370     0.000     (0)  
   FeSO4           0.000e+00   0.000e+00   -83.341   -83.341     0.000     (0)  
   Fe(HS)3-        0.000e+00   0.000e+00   -88.970   -88.970    -0.000     (0)  
Fe(3)         6.886e-26
   Fe(OH)2+        6.229e-26   6.227e-26   -25.206   -25.206    -0.000     (0)  
   Fe(OH)3         6.042e-27   6.042e-27   -26.219   -26.219     0.000     (0)  
   Fe(OH)4-        4.991e-28   4.990e-28   -27.302   -27.302    -0.000     (0)  
   FeOH+2          2.280e-29   2.277e-29   -28.642   -28.643    -0.001     (0)  
   Fe+3            4.284e-34   4.271e-34   -33.368   -33.370    -0.001     (0)  
   Fe2(OH)2+4      0.000e+00   0.000e+00   -55.853   -55.855    -0.002     (0)  
   Fe3(OH)4+5      0.000e+00   0.000e+00   -78.737   -78.741    -0.004     (0)  
   FeSO4+          0.000e+00   0.000e+00  -103.993  -103.993    -0.000     (0)  
   Fe(SO4)2-       0.000e+00   0.000e+00  -177.036  -177.036    -0.000     (0)  
H(0)          3.705e+01
   H2              1.852e+01   1.852e+01     1.268     1.268     0.000     (0)  
O(0)          0.000e+00
   O2              0.000e+00   0.000e+00   -95.244   -95.244     0.000     (0)  
S(-2)         2.700e-11
   S6-2            4.500e-12   4.494e-12   -11.347   -11.347    -0.001     (0)  
   S5-2            7.660e-17   7.650e-17   -16.116   -16.116    -0.001     (0)  
   S4-2            2.163e-21   2.161e-21   -20.665   -20.665    -0.001     (0)  
   S3-2            3.683e-26   3.678e-26   -25.434   -25.434    -0.001     (0)  
   HS-             2.311e-30   2.310e-30   -29.636   -29.636    -0.000     (0)  
   H2S             1.675e-30   1.675e-30   -29.776   -29.776     0.000     (0)  
   S-2             3.368e-36   3.363e-36   -35.473   -35.473    -0.001     (0)  
   Fe(HS)2         0.000e+00   0.000e+00   -61.370   -61.370     0.000     (0)  
   Fe(HS)3-        0.000e+00   0.000e+00   -88.970   -88.970    -0.000     (0)  
S(6)          0.000e+00
   SO4-2           0.000e+00   0.000e+00   -74.543   -74.543    -0.001     (0)  
   HSO4-           0.000e+00   0.000e+00   -79.637   -79.637    -0.000     (0)  
   FeSO4           0.000e+00   0.000e+00   -83.341   -83.341     0.000     (0)  
   FeSO4+          0.000e+00   0.000e+00  -103.993  -103.993    -0.000     (0)  
   Fe(SO4)2-       0.000e+00   0.000e+00  -177.036  -177.036    -0.000     (0)  

------------------------------Saturation indices-------------------------------

  Phase               SI** log IAP   log K(298 K,   1 atm)

  Fe2(SO4)3      -293.95   -290.37    3.58  Fe2(SO4)3
  Fe3(OH)8        -42.67    -22.45   20.22  Fe3(OH)8
  Ferrihydrite    -17.51    -12.62    4.89  Fe(OH)3
  FeS(ppt)        -29.69    -33.60   -3.92  FeS
  Goethite        -12.95    -12.45    0.50  FeOOH
  Greigite        -82.91   -141.94  -59.04  Fe3S4
  Hematite        -20.74    -24.74   -4.01  Fe2O3
  Jarosite-H     -202.84   -214.94  -12.10  (H3O)Fe3(SO4)2(OH)6
  Lepidocrocite   -13.83    -12.45    1.37  FeOOH
  Mackinawite     -31.47    -33.60   -2.14  FeS
  Maghemite       -31.13    -24.74    6.39  Fe2O3
  Magnetite       -25.53    -21.79    3.74  Fe3O4
  Melanterite     -84.27    -86.74   -2.47  FeSO4:7H2O
  O2(g)           -92.28     -9.16   83.12  O2
  pe_fix            9.29      9.29    0.00  e-
  pH_fix           -7.08     -7.08    0.00  H+
  Pyrite          -14.45    -74.74  -60.28  FeS2
  Pyrrhotite      -30.36    -33.60   -3.25  FeS
  Sulfur          -39.03    -54.05  -15.03  S

**For a gas, SI = log10(fugacity). Fugacity = pressure * phi / 1 atm.
  For ideal gases, phi = 1.

Reaction step 10.

Using solution 1.	PURE WATER
Using pure phase assemblage 1.	
Using reaction 1.	

Reaction 1.	

	  1.000e-12 moles of the following reaction have been added:

	                 Relative
	Reactant            moles

	Fe1S3                1.00000

	                 Relative
	Element             moles
	Fe                   1.00000
	S                    3.00000

-------------------------------Phase assemblage--------------------------------

                                                      Moles in assemblage
Phase               SI  log IAP  log K(T, P)   Initial       Final       Delta

Greigite          6.72     0.00     -6.72    0.000e+00           0   0.000e+00
Mackinawite     -31.41   -33.55     -2.14    0.000e+00           0   0.000e+00
Pyrite           10.07     0.00    -10.07    0.000e+00           0   0.000e+00
Pyrrhotite      -30.30   -33.55     -3.25    0.000e+00           0   0.000e+00

-----------------------------Solution composition------------------------------

	Elements           Molality       Moles

	Fe                1.000e-11   1.000e-11
	S                 3.000e-11   3.000e-11

----------------------------Description of solution----------------------------

                                       pH  =   7.081      Charge balance
                                       pe  =  -9.290      Adjusted to redox equilibrium
                        Activity of water  =   0.685
                 Ionic strength (mol/kgw)  =   8.302e-08
                       Mass of water (kg)  =   1.000e+00
                 Total alkalinity (eq/kg)  =   7.000e-11
                         Temperature (°C)  =  25.00
                  Electrical balance (eq)  =  -3.864e-16
 Percent error, 100*(Cat-|An|)/(Cat+|An|)  =  -0.00
                               Iterations  =   3
                                  Total H  = 1.480613e+02
                                  Total O  = 5.550622e+01

----------------------------Distribution of species----------------------------

                                               Log       Log       Log    mole V
   Species          Molality    Activity  Molality  Activity     Gamma    cm³/mol

   OH-             8.299e-08   8.297e-08    -7.081    -7.081    -0.000     (0)  
   H+              8.298e-08   8.296e-08    -7.081    -7.081    -0.000      0.00
   H2O             5.551e+01   6.851e-01     1.744    -0.164     0.000     18.07
Fe(2)         1.000e-11
   Fe+2            9.974e-12   9.960e-12   -11.001   -11.002    -0.001     (0)  
   FeOH+           2.602e-14   2.601e-14   -13.585   -13.585    -0.000     (0)  
   Fe(OH)2         1.828e-18   1.828e-18   -17.738   -17.738     0.000     (0)  
   Fe(OH)3-        5.612e-22   5.610e-22   -21.251   -21.251    -0.000     (0)  
   Fe(HS)2         0.000e+00   0.000e+00   -61.309   -61.309     0.000     (0)  
   FeSO4           0.000e+00   0.000e+00   -83.287   -83.287     0.000     (0)  
   Fe(HS)3-        0.000e+00   0.000e+00   -88.901   -88.901    -0.000     (0)  
Fe(3)         7.651e-26
   Fe(OH)2+        6.921e-26   6.919e-26   -25.160   -25.160    -0.000     (0)  
   Fe(OH)3         6.714e-27   6.714e-27   -26.173   -26.173     0.000     (0)  
   Fe(OH)4-        5.546e-28   5.544e-28   -27.256   -27.256    -0.000     (0)  
   FeOH+2          2.534e-29   2.530e-29   -28.596   -28.597    -0.001     (0)  
   Fe+3            4.760e-34   4.745e-34   -33.322   -33.324    -0.001     (0)  
   Fe2(OH)2+4      0.000e+00   0.000e+00   -55.761   -55.764    -0.002     (0)  
   Fe3(OH)4+5      0.000e+00   0.000e+00   -78.600   -78.604    -0.004     (0)  
   FeSO4+          0.000e+00   0.000e+00  -103.939  -103.939    -0.000     (0)  
   Fe(SO4)2-       0.000e+00   0.000e+00  -176.975  -176.975    -0.000     (0)  
H(0)          3.705e+01
   H2              1.852e+01   1.852e+01     1.268     1.268     0.000     (0)  
O(0)          0.000e+00
   O2              0.000e+00   0.000e+00   -95.244   -95.244     0.000     (0)  
S(-2)         3.000e-11
   S6-2            5.000e-12   4.993e-12   -11.301   -11.302    -0.001     (0)  
   S5-2            8.363e-17   8.352e-17   -16.078   -16.078    -0.001     (0)  
   S4-2            2.321e-21   2.318e-21   -20.634   -20.635    -0.001     (0)  
   S3-2            3.882e-26   3.877e-26   -25.411   -25.412    -0.001     (0)  
   HS-             2.352e-30   2.351e-30   -29.629   -29.629    -0.000     (0)  
   H2S             1.705e-30   1.705e-30   -29.768   -29.768     0.000     (0)  
   S-2             3.427e-36   3.423e-36   -35.465   -35.466    -0.001     (0)  
   Fe(HS)2         0.000e+00   0.000e+00   -61.309   -61.309     0.000     (0)  
   Fe(HS)3-        0.000e+00   0.000e+00   -88.901   -88.901    -0.000     (0)  
S(6)          0.000e+00
   SO4-2           0.000e+00   0.000e+00   -74.535   -74.536    -0.001     (0)  
   HSO4-           0.000e+00   0.000e+00   -79.630   -79.630    -0.000     (0)  
   FeSO4           0.000e+00   0.000e+00   -83.287   -83.287     0.000     (0)  
   FeSO4+          0.000e+00   0.000e+00  -103.939  -103.939    -0.000     (0)  
   Fe(SO4)2-       0.000e+00   0.000e+00  -176.975  -176.975    -0.000     (0)  

------------------------------Saturation indices-------------------------------

  Phase               SI** log IAP   log K(298 K,   1 atm)

  Fe2(SO4)3      -293.83   -290.25    3.58  Fe2(SO4)3
  Fe3(OH)8        -42.54    -22.31   20.22  Fe3(OH)8
  Ferrihydrite    -17.46    -12.57    4.89  Fe(OH)3
  FeS(ppt)        -29.63    -33.55   -3.92  FeS
  Goethite        -12.91    -12.41    0.50  FeOOH
  Greigite        -82.74   -141.78  -59.04  Fe3S4
  Hematite        -20.65    -24.65   -4.01  Fe2O3
  Jarosite-H     -202.69   -214.79  -12.10  (H3O)Fe3(SO4)2(OH)6
  Lepidocrocite   -13.78    -12.41    1.37  FeOOH
  Mackinawite     -31.41    -33.55   -2.14  FeS
  Maghemite       -31.04    -24.65    6.39  Fe2O3
  Magnetite       -25.39    -21.66    3.74  Fe3O4
  Melanterite     -84.22    -86.69   -2.47  FeSO4:7H2O
  O2(g)           -92.28     -9.16   83.12  O2
  pe_fix            9.29      9.29    0.00  e-
  pH_fix           -7.08     -7.08    0.00  H+
  Pyrite          -14.39    -74.68  -60.28  FeS2
  Pyrrhotite      -30.30    -33.55   -3.25  FeS
  Sulfur          -39.02    -54.05  -15.03  S

**For a gas, SI = log10(fugacity). Fugacity = pressure * phi / 1 atm.
  For ideal gases, phi = 1.

Reaction step 11.

Using solution 1.	PURE WATER
Using pure phase assemblage 1.	
Using reaction 1.	

Reaction 1.	

	  1.000e-11 moles of the following reaction have been added:

	                 Relative
	Reactant            moles

	Fe1S3                1.00000

	                 Relative
	Element             moles
	Fe                   1.00000
	S                    3.00000

-------------------------------Phase assemblage--------------------------------

                                                      Moles in assemblage
Phase               SI  log IAP  log K(T, P)   Initial       Final       Delta

Greigite          6.72     0.00     -6.72    0.000e+00           0   0.000e+00
Mackinawite     -31.06   -33.20     -2.14    0.000e+00           0   0.000e+00
Pyrite           10.07     0.00    -10.07    0.000e+00           0   0.000e+00
Pyrrhotite      -29.95   -33.20     -3.25    0.000e+00           0   0.000e+00

-----------------------------Solution composition------------------------------

	Elements           Molality       Moles

	Fe                2.000e-11   2.000e-11
	S                 6.000e-11   6.000e-11

----------------------------Description of solution----------------------------

                                       pH  =   7.081      Charge balance
                                       pe  =  -9.290      Adjusted to redox equilibrium
                        Activity of water  =   0.685
                 Ionic strength (mol/kgw)  =   8.305e-08
                       Mass of water (kg)  =   1.000e+00
                 Total alkalinity (eq/kg)  =   1.400e-10
                         Temperature (°C)  =  25.00
                  Electrical balance (eq)  =  -3.864e-16
 Percent error, 100*(Cat-|An|)/(Cat+|An|)  =  -0.00
                               Iterations  =   5
                                  Total H  = 1.480613e+02
                                  Total O  = 5.550622e+01

----------------------------Distribution of species----------------------------

                                               Log       Log       Log    mole V
   Species          Molality    Activity  Molality  Activity     Gamma    cm³/mol

   OH-             8.300e-08   8.297e-08    -7.081    -7.081    -0.000     (0)  
   H+              8.298e-08   8.295e-08    -7.081    -7.081    -0.000      0.00
   H2O             5.551e+01   6.851e-01     1.744    -0.164     0.000     18.07
Fe(2)         2.000e-11
   Fe+2            1.995e-11   1.992e-11   -10.700   -10.701    -0.001     (0)  
   FeOH+           5.205e-14   5.203e-14   -13.284   -13.284    -0.000     (0)  
   Fe(OH)2         3.657e-18   3.657e-18   -17.437   -17.437     0.000     (0)  
   Fe(OH)3-        1.123e-21   1.122e-21   -20.950   -20.950    -0.000     (0)  
   Fe(HS)2         0.000e+00   0.000e+00   -60.908   -60.908     0.000     (0)  
   FeSO4           0.000e+00   0.000e+00   -82.936   -82.936     0.000     (0)  
   Fe(HS)3-        0.000e+00   0.000e+00   -88.449   -88.450    -0.000     (0)  
Fe(3)         1.530e-25
   Fe(OH)2+        1.384e-25   1.384e-25   -24.859   -24.859    -0.000     (0)  
   Fe(OH)3         1.343e-26   1.343e-26   -25.872   -25.872     0.000     (0)  
   Fe(OH)4-        1.109e-27   1.109e-27   -26.955   -26.955    -0.000     (0)  
   FeOH+2          5.067e-29   5.060e-29   -28.295   -28.296    -0.001     (0)  
   Fe+3            9.519e-34   9.490e-34   -33.021   -33.023    -0.001     (0)  
   Fe2(OH)2+4      0.000e+00   0.000e+00   -55.159   -55.162    -0.002     (0)  
   Fe3(OH)4+5      0.000e+00   0.000e+00   -77.697   -77.701    -0.004     (0)  
   FeSO4+          0.000e+00   0.000e+00  -103.588  -103.588    -0.000     (0)  
   Fe(SO4)2-       0.000e+00   0.000e+00  -176.573  -176.574    -0.000     (0)  
H(0)          3.705e+01
   H2              1.852e+01   1.852e+01     1.268     1.268     0.000     (0)  
O(0)          0.000e+00
   O2              0.000e+00   0.000e+00   -95.244   -95.244     0.000     (0)  
S(-2)         6.000e-11
   S6-2            1.000e-11   9.986e-12   -11.000   -11.001    -0.001     (0)  
   S5-2            1.490e-16   1.488e-16   -15.827   -15.827    -0.001     (0)  
   S4-2            3.684e-21   3.679e-21   -20.434   -20.434    -0.001     (0)  
   S3-2            5.490e-26   5.483e-26   -25.260   -25.261    -0.001     (0)  
   HS-             2.640e-30   2.639e-30   -29.578   -29.579    -0.000     (0)  
   H2S             1.914e-30   1.914e-30   -29.718   -29.718     0.000     (0)  
   S-2             3.847e-36   3.842e-36   -35.415   -35.415    -0.001     (0)  
   Fe(HS)2         0.000e+00   0.000e+00   -60.908   -60.908     0.000     (0)  
   Fe(HS)3-        0.000e+00   0.000e+00   -88.449   -88.450    -0.000     (0)  
S(6)          0.000e+00
   SO4-2           0.000e+00   0.000e+00   -74.485   -74.485    -0.001     (0)  
   HSO4-           0.000e+00   0.000e+00   -79.580   -79.580    -0.000     (0)  
   FeSO4           0.000e+00   0.000e+00   -82.936   -82.936     0.000     (0)  
   FeSO4+          0.000e+00   0.000e+00  -103.588  -103.588    -0.000     (0)  
   Fe(SO4)2-       0.000e+00   0.000e+00  -176.573  -176.574    -0.000     (0)  

------------------------------Saturation indices-------------------------------

  Phase               SI** log IAP   log K(298 K,   1 atm)

  Fe2(SO4)3      -293.08   -289.50    3.58  Fe2(SO4)3
  Fe3(OH)8        -41.63    -21.41   20.22  Fe3(OH)8
  Ferrihydrite    -17.16    -12.27    4.89  Fe(OH)3
  FeS(ppt)        -29.28    -33.20   -3.92  FeS
  Goethite        -12.61    -12.11    0.50  FeOOH
  Greigite        -81.64   -140.67  -59.04  Fe3S4
  Hematite        -20.04    -24.05   -4.01  Fe2O3
  Jarosite-H     -201.68   -213.78  -12.10  (H3O)Fe3(SO4)2(OH)6
  Lepidocrocite   -13.48    -12.11    1.37  FeOOH
  Mackinawite     -31.06    -33.20   -2.14  FeS
  Maghemite       -30.44    -24.05    6.39  Fe2O3
  Magnetite       -24.49    -20.75    3.74  Fe3O4
  Melanterite     -83.87    -86.34   -2.47  FeSO4:7H2O
  O2(g)           -92.28     -9.16   83.12  O2
  pe_fix            9.29      9.29    0.00  e-
  pH_fix           -7.08     -7.08    0.00  H+
  Pyrite          -13.99    -74.28  -60.28  FeS2
  Pyrrhotite      -29.95    -33.20   -3.25  FeS
  Sulfur          -38.97    -54.00  -15.03  S

**For a gas, SI = log10(fugacity). Fugacity = pressure * phi / 1 atm.
  For ideal gases, phi = 1.

Reaction step 12.

Using solution 1.	PURE WATER
Using pure phase assemblage 1.	
Using reaction 1.	

Reaction 1.	

	  1.000e-11 moles of the following reaction have been added:

	                 Relative
	Reactant            moles

	Fe1S3                1.00000

	                 Relative
	Element             moles
	Fe                   1.00000
	S                    3.00000

-------------------------------Phase assemblage--------------------------------

                                                      Moles in assemblage
Phase               SI  log IAP  log K(T, P)   Initial       Final       Delta

Greigite          6.72     0.00     -6.72    0.000e+00           0   0.000e+00
Mackinawite     -30.86   -32.99     -2.14    0.000e+00           0   0.000e+00
Pyrite           10.07     0.00    -10.07    0.000e+00           0   0.000e+00
Pyrrhotite      -29.75   -32.99     -3.25    0.000e+00           0   0.000e+00

-----------------------------Solution composition------------------------------

	Elements           Molality       Moles

	Fe                3.000e-11   3.000e-11
	S                 9.000e-11   9.000e-11

----------------------------Description of solution----------------------------

                                       pH  =   7.081      Charge balance
                                       pe  =  -9.290      Adjusted to redox equilibrium
                        Activity of water  =   0.685
                 Ionic strength (mol/kgw)  =   8.308e-08
                       Mass of water (kg)  =   1.000e+00
                 Total alkalinity (eq/kg)  =   2.100e-10
                         Temperature (°C)  =  25.00
                  Electrical balance (eq)  =  -3.864e-16
 Percent error, 100*(Cat-|An|)/(Cat+|An|)  =  -0.00
                               Iterations  =   4
                                  Total H  = 1.480613e+02
                                  Total O  = 5.550622e+01

----------------------------Distribution of species----------------------------

                                               Log       Log       Log    mole V
   Species          Molality    Activity  Molality  Activity     Gamma    cm³/mol

   OH-             8.300e-08   8.298e-08    -7.081    -7.081    -0.000     (0)  
   H+              8.297e-08   8.295e-08    -7.081    -7.081    -0.000      0.00
[...]
  Pyrite            0.00    -60.28  -60.28  FeS2
  Pyrrhotite      -14.98    -18.22   -3.25  FeS
  Sulfur          -39.95    -54.98  -15.03  S

**For a gas, SI = log10(fugacity). Fugacity = pressure * phi / 1 atm.
  For ideal gases, phi = 1.

Reaction step 108.

Using solution 1.	PURE WATER
Using pure phase assemblage 1.	
Using reaction 1.	

Reaction 1.	

	  1.000e-02 moles of the following reaction have been added:

	                 Relative
	Reactant            moles

	Fe3S1                1.00000

	                 Relative
	Element             moles
	Fe                   3.00000
	S                    1.00000

-------------------------------Phase assemblage--------------------------------

                                                      Moles in assemblage
Phase               SI  log IAP  log K(T, P)   Initial       Final       Delta

Greigite          6.72     0.00     -6.72    0.000e+00           0   0.000e+00
Mackinawite     -16.06   -18.20     -2.14    0.000e+00           0   0.000e+00
Pyrite           10.07     0.00    -10.07    4.056e-02   4.556e-02   5.000e-03
Pyrrhotite      -14.95   -18.20     -3.25    0.000e+00           0   0.000e+00

-----------------------------Solution composition------------------------------

	Elements           Molality       Moles

	Fe                2.297e-01   2.278e-01
	S                 8.817e-09   8.745e-09

----------------------------Description of solution----------------------------

                                       pH  =  10.960      Charge balance
                                       pe  = -13.179      Adjusted to redox equilibrium
                        Activity of water  =   0.675
                 Ionic strength (mol/kgw)  =   1.115e-01
                       Mass of water (kg)  =   9.918e-01
                 Total alkalinity (eq/kg)  =   4.593e-01
                         Temperature (°C)  =  25.00
                  Electrical balance (eq)  =  -1.944e-11
 Percent error, 100*(Cat-|An|)/(Cat+|An|)  =  -0.00
                               Iterations  =   4
                                  Total H  = 1.480613e+02
                                  Total O  = 5.550622e+01

----------------------------Distribution of species----------------------------

                                               Log       Log       Log    mole V
   Species          Molality    Activity  Molality  Activity     Gamma    cm³/mol

   OH-             8.202e-04   6.178e-04    -3.086    -3.209    -0.123     (0)  
   H+              1.336e-11   1.097e-11   -10.874   -10.960    -0.086      0.00
   H2O             5.551e+01   6.747e-01     1.744    -0.171     0.000     18.07
Fe(2)         2.297e-01
   Fe(OH)3-        1.019e-01   7.912e-02    -0.992    -1.102    -0.110     (0)  
   FeOH+           8.522e-02   6.616e-02    -1.069    -1.179    -0.110     (0)  
   Fe(OH)2         3.375e-02   3.463e-02    -1.472    -1.461     0.011     (0)  
   Fe+2            8.761e-03   3.402e-03    -2.057    -2.468    -0.411     (0)  
   Fe(HS)2         0.000e+00   0.000e+00   -46.907   -46.896     0.011     (0)  
   FeSO4           0.000e+00   0.000e+00   -68.053   -68.042     0.011     (0)  
   Fe(HS)3-        0.000e+00   0.000e+00   -71.437   -71.547    -0.111     (0)  
Fe(3)         9.638e-08
   Fe(OH)4-        9.626e-08   7.525e-08    -7.017    -7.124    -0.107     (0)  
   Fe(OH)3         1.193e-10   1.224e-10    -9.924    -9.912     0.011     (0)  
   Fe(OH)2+        2.166e-13   1.693e-13   -12.664   -12.771    -0.107     (0)  
   FeOH+2          2.290e-20   8.316e-21   -19.640   -20.080    -0.440     (0)  
   Fe+3            1.237e-28   2.094e-29   -27.908   -28.679    -0.771     (0)  
   Fe2(OH)2+4      1.096e-37   1.861e-39   -36.960   -38.730    -1.770     (0)  
   Fe3(OH)4+5      0.000e+00   0.000e+00   -46.416   -49.181    -2.765     (0)  
   FeSO4+          0.000e+00   0.000e+00   -92.473   -92.583    -0.110     (0)  
   Fe(SO4)2-       0.000e+00   0.000e+00  -158.796  -158.906    -0.111     (0)  
H(0)          3.781e+01
   H2              1.891e+01   1.940e+01     1.277     1.288     0.011     (0)  
O(0)          0.000e+00
   O2              0.000e+00   0.000e+00   -95.309   -95.297     0.011     (0)  
S(-2)         8.817e-09
   S6-2            1.469e-09   5.305e-10    -8.833    -9.275    -0.442     (0)  
   S5-2            2.234e-13   8.064e-14   -12.651   -13.093    -0.442     (0)  
   S4-2            5.634e-17   2.034e-17   -16.249   -16.692    -0.442     (0)  
   S3-2            8.565e-21   3.092e-21   -20.067   -20.510    -0.442     (0)  
   HS-             2.719e-27   2.048e-27   -26.566   -26.689    -0.123     (0)  
   S-2             6.210e-29   2.255e-29   -28.207   -28.647    -0.440     (0)  
   H2S             1.915e-31   1.965e-31   -30.718   -30.707     0.011     (0)  
   Fe(HS)2         0.000e+00   0.000e+00   -46.907   -46.896     0.011     (0)  
   Fe(HS)3-        0.000e+00   0.000e+00   -71.437   -71.547    -0.111     (0)  
S(6)          0.000e+00
   SO4-2           0.000e+00   0.000e+00   -67.346   -67.824    -0.478     (0)  
   FeSO4           0.000e+00   0.000e+00   -68.053   -68.042     0.011     (0)  
   HSO4-           0.000e+00   0.000e+00   -76.682   -76.796    -0.114     (0)  
   FeSO4+          0.000e+00   0.000e+00   -92.473   -92.583    -0.110     (0)  
   Fe(SO4)2-       0.000e+00   0.000e+00  -158.796  -158.906    -0.111     (0)  

------------------------------Saturation indices-------------------------------

  Phase               SI** log IAP   log K(298 K,   1 atm)

  Fe2(SO4)3      -264.41   -260.83    3.58  Fe2(SO4)3
  Fe3(OH)8          6.26     26.48   20.22  Fe3(OH)8
  Ferrihydrite     -1.20      3.69    4.89  Fe(OH)3
  FeS(ppt)        -14.28    -18.20   -3.92  FeS
  Goethite          3.36      3.86    0.50  FeOOH
  Greigite        -37.64    -96.68  -59.04  Fe3S4
  Hematite         11.90      7.89   -4.01  Fe2O3
  Jarosite-H     -155.98   -168.08  -12.10  (H3O)Fe3(SO4)2(OH)6
  Lepidocrocite     2.49      3.86    1.37  FeOOH
  Mackinawite     -16.06    -18.20   -2.14  FeS
  Maghemite         1.50      7.89    6.39  Fe2O3
  Magnetite        23.43     27.17    3.74  Fe3O4
  Melanterite     -69.02    -71.49   -2.47  FeSO4:7H2O
  O2(g)           -92.34     -9.22   83.12  O2
  pe_fix           13.18     13.18    0.00  e-
  pH_fix          -10.96    -10.96    0.00  H+
  Pyrite            0.00    -60.28  -60.28  FeS2
  Pyrrhotite      -14.95    -18.20   -3.25  FeS
  Sulfur          -39.98    -55.00  -15.03  S

**For a gas, SI = log10(fugacity). Fugacity = pressure * phi / 1 atm.
  For ideal gases, phi = 1.

Reaction step 109.

Using solution 1.	PURE WATER
Using pure phase assemblage 1.	
Using reaction 1.	

Reaction 1.	

	  1.000e-02 moles of the following reaction have been added:

	                 Relative
	Reactant            moles

	Fe3S1                1.00000

	                 Relative
	Element             moles
	Fe                   3.00000
	S                    1.00000

-------------------------------Phase assemblage--------------------------------

                                                      Moles in assemblage
Phase               SI  log IAP  log K(T, P)   Initial       Final       Delta

Greigite          6.72     0.00     -6.72    0.000e+00           0   0.000e+00
Mackinawite     -16.04   -18.17     -2.14    0.000e+00           0   0.000e+00
Pyrite           10.07     0.00    -10.07    4.556e-02   5.056e-02   5.000e-03
Pyrrhotite      -14.93   -18.17     -3.25    0.000e+00           0   0.000e+00

-----------------------------Solution composition------------------------------

	Elements           Molality       Moles

	Fe                2.551e-01   2.528e-01
	S                 6.708e-09   6.646e-09

----------------------------Description of solution----------------------------

                                       pH  =  10.961      Charge balance
                                       pe  = -13.181      Adjusted to redox equilibrium
                        Activity of water  =   0.674
                 Ionic strength (mol/kgw)  =   1.243e-01
                       Mass of water (kg)  =   9.909e-01
                 Total alkalinity (eq/kg)  =   5.102e-01
                         Temperature (°C)  =  25.00
                  Electrical balance (eq)  =  -1.963e-11
 Percent error, 100*(Cat-|An|)/(Cat+|An|)  =  -0.00
                               Iterations  =   4
                                  Total H  = 1.480613e+02
                                  Total O  = 5.550622e+01

----------------------------Distribution of species----------------------------

                                               Log       Log       Log    mole V
   Species          Molality    Activity  Molality  Activity     Gamma    cm³/mol

   OH-             8.312e-04   6.191e-04    -3.080    -3.208    -0.128     (0)  
   H+              1.338e-11   1.093e-11   -10.873   -10.961    -0.088      0.00
   H2O             5.551e+01   6.735e-01     1.744    -0.172     0.000     18.07
Fe(2)         2.551e-01
   Fe(OH)3-        1.136e-01   8.736e-02    -0.945    -1.059    -0.114     (0)  
   FeOH+           9.455e-02   7.274e-02    -1.024    -1.138    -0.114     (0)  
   Fe(OH)2         3.708e-02   3.816e-02    -1.431    -1.418     0.012     (0)  
   Fe+2            9.917e-03   3.733e-03    -2.004    -2.428    -0.424     (0)  
   Fe(HS)2         0.000e+00   0.000e+00   -46.906   -46.893     0.012     (0)  
   FeSO4           0.000e+00   0.000e+00   -68.043   -68.031     0.012     (0)  
   Fe(HS)3-        0.000e+00   0.000e+00   -71.450   -71.564    -0.114     (0)  
Fe(3)         1.069e-07
   Fe(OH)4-        1.067e-07   8.273e-08    -6.972    -7.082    -0.111     (0)  
   Fe(OH)3         1.305e-10   1.342e-10    -9.885    -9.872     0.012     (0)  
   Fe(OH)2+        2.392e-13   1.854e-13   -12.621   -12.732    -0.111     (0)  
   FeOH+2          2.593e-20   9.085e-21   -19.586   -20.042    -0.456     (0)  
   Fe+3            1.416e-28   2.283e-29   -27.849   -28.641    -0.792     (0)  
   Fe2(OH)2+4      1.477e-37   2.222e-39   -36.830   -38.653    -1.823     (0)  
   Fe3(OH)4+5      0.000e+00   0.000e+00   -46.217   -49.065    -2.848     (0)  
   FeSO4+          0.000e+00   0.000e+00   -92.461   -92.574    -0.114     (0)  
   Fe(SO4)2-       0.000e+00   0.000e+00  -158.814  -158.927    -0.114     (0)  
H(0)          3.790e+01
   H2              1.895e+01   1.950e+01     1.278     1.290     0.012     (0)  
O(0)          0.000e+00
   O2              0.000e+00   0.000e+00   -95.316   -95.303     0.012     (0)  
S(-2)         6.708e-09
   S6-2            1.118e-09   3.914e-10    -8.952    -9.407    -0.456     (0)  
   S5-2            1.791e-13   6.273e-14   -12.747   -13.203    -0.456     (0)  
   S4-2            4.763e-17   1.668e-17   -16.322   -16.778    -0.456     (0)  
   S3-2            7.634e-21   2.673e-21   -20.117   -20.573    -0.456     (0)  
   HS-             2.632e-27   1.960e-27   -26.580   -26.708    -0.128     (0)  
   S-2             6.184e-29   2.167e-29   -28.209   -28.664    -0.456     (0)  
   H2S             1.820e-31   1.873e-31   -30.740   -30.727     0.012     (0)  
   Fe(HS)2         0.000e+00   0.000e+00   -46.906   -46.893     0.012     (0)  
   Fe(HS)3-        0.000e+00   0.000e+00   -71.450   -71.564    -0.114     (0)  
S(6)          0.000e+00
   SO4-2           0.000e+00   0.000e+00   -67.356   -67.853    -0.497     (0)  
   FeSO4           0.000e+00   0.000e+00   -68.043   -68.031     0.012     (0)  
   HSO4-           0.000e+00   0.000e+00   -76.709   -76.827    -0.118     (0)  
   FeSO4+          0.000e+00   0.000e+00   -92.461   -92.574    -0.114     (0)  
   Fe(SO4)2-       0.000e+00   0.000e+00  -158.814  -158.927    -0.114     (0)  

------------------------------Saturation indices-------------------------------

  Phase               SI** log IAP   log K(298 K,   1 atm)

  Fe2(SO4)3      -264.42   -260.84    3.58  Fe2(SO4)3
  Fe3(OH)8          6.39     26.61   20.22  Fe3(OH)8
  Ferrihydrite     -1.16      3.73    4.89  Fe(OH)3
  FeS(ppt)        -14.26    -18.17   -3.92  FeS
  Goethite          3.40      3.90    0.50  FeOOH
  Greigite        -37.60    -96.63  -59.04  Fe3S4
  Hematite         11.98      7.97   -4.01  Fe2O3
  Jarosite-H     -155.92   -168.02  -12.10  (H3O)Fe3(SO4)2(OH)6
  Lepidocrocite     2.53      3.90    1.37  FeOOH
  Mackinawite     -16.04    -18.17   -2.14  FeS
  Maghemite         1.58      7.97    6.39  Fe2O3
  Magnetite        23.56     27.29    3.74  Fe3O4
  Melanterite     -69.01    -71.48   -2.47  FeSO4:7H2O
  O2(g)           -92.34     -9.22   83.12  O2
  pe_fix           13.18     13.18    0.00  e-
  pH_fix          -10.96    -10.96    0.00  H+
  Pyrite            0.00    -60.28  -60.28  FeS2
  Pyrrhotite      -14.93    -18.17   -3.25  FeS
  Sulfur          -40.00    -55.03  -15.03  S

**For a gas, SI = log10(fugacity). Fugacity = pressure * phi / 1 atm.
  For ideal gases, phi = 1.

Reaction step 110.

Using solution 1.	PURE WATER
Using pure phase assemblage 1.	
Using reaction 1.	

Reaction 1.	

	  1.000e-02 moles of the following reaction have been added:

	                 Relative
	Reactant            moles

	Fe3S1                1.00000

	                 Relative
	Element             moles
	Fe                   3.00000
	S                    1.00000

-------------------------------Phase assemblage--------------------------------

                                                      Moles in assemblage
Phase               SI  log IAP  log K(T, P)   Initial       Final       Delta

Greigite          6.72     0.00     -6.72    0.000e+00           0   0.000e+00
Mackinawite     -16.02   -18.15     -2.14    0.000e+00           0   0.000e+00
Pyrite           10.07     0.00    -10.07    5.056e-02   5.556e-02   5.000e-03
Pyrrhotite      -14.91   -18.15     -3.25    0.000e+00           0   0.000e+00

-----------------------------Solution composition------------------------------

	Elements           Molality       Moles

	Fe                2.806e-01   2.778e-01
	S                 5.224e-09   5.172e-09

----------------------------Description of solution----------------------------

                                       pH  =  10.963      Charge balance
                                       pe  = -13.184      Adjusted to redox equilibrium
                        Activity of water  =   0.672
                 Ionic strength (mol/kgw)  =   1.372e-01
                       Mass of water (kg)  =   9.900e-01
                 Total alkalinity (eq/kg)  =   5.612e-01
                         Temperature (°C)  =  25.00
                  Electrical balance (eq)  =  -1.977e-11
 Percent error, 100*(Cat-|An|)/(Cat+|An|)  =  -0.00
                               Iterations  =   4
                                  Total H  = 1.480613e+02
                                  Total O  = 5.550622e+01

----------------------------Distribution of species----------------------------

                                               Log       Log       Log    mole V
   Species          Molality    Activity  Molality  Activity     Gamma    cm³/mol

   OH-             8.416e-04   6.203e-04    -3.075    -3.207    -0.132     (0)  
   H+              1.340e-11   1.089e-11   -10.873   -10.963    -0.090      0.00
   H2O             5.551e+01   6.723e-01     1.744    -0.172     0.000     18.07
Fe(2)         2.806e-01
   Fe(OH)3-        1.252e-01   9.556e-02    -0.902    -1.020    -0.117     (0)  
   FeOH+           1.039e-01   7.927e-02    -0.983    -1.101    -0.117     (0)  
   Fe(OH)2         4.036e-02   4.166e-02    -1.394    -1.380     0.014     (0)  
   Fe+2            1.110e-02   4.060e-03    -1.955    -2.391    -0.437     (0)  
   Fe(HS)2         0.000e+00   0.000e+00   -46.905   -46.891     0.014     (0)  
   FeSO4           0.000e+00   0.000e+00   -68.036   -68.022     0.014     (0)  
   Fe(HS)3-        0.000e+00   0.000e+00   -71.462   -71.579    -0.117     (0)  
Fe(3)         1.173e-07
   Fe(OH)4-        1.171e-07   9.010e-08    -6.931    -7.045    -0.114     (0)  
   Fe(OH)3         1.414e-10   1.459e-10    -9.850    -9.836     0.014     (0)  
   Fe(OH)2+        2.615e-13   2.012e-13   -12.582   -12.696    -0.114     (0)  
   FeOH+2          2.902e-20   9.839e-21   -19.537   -20.007    -0.470     (0)  
   Fe+3            1.599e-28   2.468e-29   -27.796   -28.608    -0.812     (0)  
   Fe2(OH)2+4      1.930e-37   2.606e-39   -36.714   -38.584    -1.870     (0)  
   Fe3(OH)4+5      0.000e+00   0.000e+00   -46.039   -48.961    -2.921     (0)  
   FeSO4+          0.000e+00   0.000e+00   -92.451   -92.568    -0.117     (0)  
   Fe(SO4)2-       0.000e+00   0.000e+00  -158.832  -158.949    -0.117     (0)  
H(0)          3.798e+01
   H2              1.899e+01   1.960e+01     1.279     1.292     0.014     (0)  
O(0)          0.000e+00
   O2              0.000e+00   0.000e+00   -95.323   -95.309     0.014     (0)  
S(-2)         5.224e-09
   S6-2            8.706e-10   2.968e-10    -9.060    -9.528    -0.467     (0)  
   S5-2            1.464e-13   4.991e-14   -12.834   -13.302    -0.467     (0)  
   S4-2            4.086e-17   1.393e-17   -16.389   -16.856    -0.467     (0)  
   S3-2            6.871e-21   2.342e-21   -20.163   -20.630    -0.467     (0)  
   HS-             2.557e-27   1.885e-27   -26.592   -26.725    -0.132     (0)  
   S-2             6.167e-29   2.090e-29   -28.210   -28.680    -0.470     (0)  
   H2S             1.739e-31   1.794e-31   -30.760   -30.746     0.014     (0)  
   Fe(HS)2         0.000e+00   0.000e+00   -46.905   -46.891     0.014     (0)  
   Fe(HS)3-        0.000e+00   0.000e+00   -71.462   -71.579    -0.117     (0)  
S(6)          0.000e+00
   SO4-2           0.000e+00   0.000e+00   -67.367   -67.881    -0.514     (0)  
   FeSO4           0.000e+00   0.000e+00   -68.036   -68.022     0.014     (0)  
   HSO4-           0.000e+00   0.000e+00   -76.735   -76.857    -0.122     (0)  
   FeSO4+          0.000e+00   0.000e+00   -92.451   -92.568    -0.117     (0)  
   Fe(SO4)2-       0.000e+00   0.000e+00  -158.832  -158.949    -0.117     (0)  

------------------------------Saturation indices-------------------------------

  Phase               SI** log IAP   log K(298 K,   1 atm)

  Fe2(SO4)3      -264.44   -260.86    3.58  Fe2(SO4)3
  Fe3(OH)8          6.50     26.72   20.22  Fe3(OH)8
  Ferrihydrite     -1.13      3.76    4.89  Fe(OH)3
  FeS(ppt)        -14.24    -18.15   -3.92  FeS
  Goethite          3.44      3.94    0.50  FeOOH
  Greigite        -37.55    -96.59  -59.04  Fe3S4
  Hematite         12.05      8.05   -4.01  Fe2O3
  Jarosite-H     -155.88   -167.98  -12.10  (H3O)Fe3(SO4)2(OH)6
  Lepidocrocite     2.57      3.94    1.37  FeOOH
  Mackinawite     -16.02    -18.15   -2.14  FeS
  Maghemite         1.66      8.05    6.39  Fe2O3
  Magnetite        23.67     27.41    3.74  Fe3O4
  Melanterite     -69.01    -71.48   -2.47  FeSO4:7H2O
  O2(g)           -92.35     -9.23   83.12  O2
  pe_fix           13.18     13.18    0.00  e-
  pH_fix          -10.96    -10.96    0.00  H+
  Pyrite            0.00    -60.28  -60.28  FeS2
  Pyrrhotite      -14.91    -18.15   -3.25  FeS
  Sulfur          -40.02    -55.05  -15.03  S

**For a gas, SI = log10(fugacity). Fugacity = pressure * phi / 1 atm.
  For ideal gases, phi = 1.

------------------
End of simulation.
------------------

------------------------------------
Reading input data for simulation 5.
------------------------------------

-------------------------------
End of Run after 1.173 Seconds.
-------------------------------

