   Input file: C:\Users\jt2020\OneDrive - Imperial College London\Data\Thermodynamics\Thermodynamics\Phreeq\Reaction Progress\All models with pyrrhotite\H2S\H2S fixed conditions Fe dominant unfix.pqi
  Output file: C:\Users\jt2020\OneDrive - Imperial College London\Data\Thermodynamics\Thermodynamics\Phreeq\Reaction Progress\All models with pyrrhotite\H2S\H2S fixed conditions Fe dominant unfix.pqo
Database file: C:\Users\jt2020\OneDrive - Imperial College London\Data\Thermodynamics\Thermodynamics\Phreeq\Reaction Progress\All models with pyrrhotite\Database\llnlpyrrminteq.dat

------------------
Reading data base.
------------------

	SOLUTION_MASTER_SPECIES
	SOLUTION_SPECIES
	SOLUTION_SPECIES
	PHASES
	SURFACE_MASTER_SPECIES
	SURFACE_SPECIES
	END
------------------------------------
Reading input data for simulation 1.
------------------------------------

	DATABASE C:\Users\jt2020\OneDrive - Imperial College London\Data\Thermodynamics\Thermodynamics\Phreeq\Reaction Progress\All models with pyrrhotite\Database\llnlpyrrminteq.dat
	TITLE  H2S Fe dominated 250mV
	SOLUTION 1  PURE WATER
	            pH    6 charge
	          temp   25.0
	           pe     -4.23       #-250 mV 
	PHASES
	       pH_fix
	                H + = H +
	                log_k = 0.0
	       pe_fix
	                e- = e-
	                log_k 0.0
	Mackinawite
	    FeS + 2H+ = Fe+2 + H2S
	    log_k     4.850
	    delta_h        -8.901 kcal
	Pyrrhotite
	    FeS + 2H+ = Fe+2 + H2S
	    log_k     3.74177
	    delta_h        -7.977 kcal
	Greigite
	    Fe3S4 + 8H+ = 2Fe+3 + Fe+2 + 4H2S
	    log_k     -13.17851821
	    delta_h        20.9195763 kcal
	Pyrite
	    FeS2 + 4H+ + Fe+2 = 2Fe+3 + 2H2S
	    log_k     -28.93469201
	    delta_h        20.7091683 kcal
	NaNO3
	    NaNO3 = Na+ + NO3-
	    log_K -20
	NaCl
	    NaCl = Cl- + Na+
	    log_k     -20
	END
-----
TITLE
-----

  H2S Fe dominated 250mV

-------------------------------------------
Beginning of initial solution calculations.
-------------------------------------------

Initial solution 1.	PURE WATER

-----------------------------Solution composition------------------------------

	Elements           Molality       Moles

	Pure water     

----------------------------Description of solution----------------------------

                                       pH  =   6.999      Charge balance
                                       pe  =  -4.230    
                        Activity of water  =   1.000
                 Ionic strength (mol/kgw)  =   1.003e-07
                       Mass of water (kg)  =   1.000e+00
                 Total alkalinity (eq/kg)  =   4.300e-16
                         Temperature (°C)  =  25.00
                  Electrical balance (eq)  =  -4.300e-16
 Percent error, 100*(Cat-|An|)/(Cat+|An|)  =  -0.00
                               Iterations  =   5
                                  Total H  = 1.110124e+02
                                  Total O  = 5.550622e+01

----------------------------Distribution of species----------------------------

                                               Log       Log       Log    mole V
   Species          Molality    Activity  Molality  Activity     Gamma    cm³/mol

   OH-             1.003e-07   1.002e-07    -6.999    -6.999    -0.000     (0)  
   H+              1.003e-07   1.002e-07    -6.999    -6.999    -0.000      0.00
   H2O             5.551e+01   1.000e+00     1.744    -0.000     0.000     18.07
H(0)          4.102e-09
   H2              2.051e-09   2.051e-09    -8.688    -8.688     0.000     (0)  
O(0)          0.000e+00
   O2              0.000e+00   0.000e+00   -75.004   -75.004     0.000     (0)  

------------------------------Saturation indices-------------------------------

  Phase               SI** log IAP   log K(298 K,   1 atm)

  O2(g)           -72.04     11.08   83.12  O2
  pe_fix            4.23      4.23    0.00  e-
  pH_fix           -7.00     -7.00    0.00  H+

**For a gas, SI = log10(fugacity). Fugacity = pressure * phi / 1 atm.
  For ideal gases, phi = 1.

------------------
End of simulation.
------------------

------------------------------------
Reading input data for simulation 2.
------------------------------------

	INCREMENTAL_REACTIONS
	REACTION
	Fe3S1 1
	10*1e-12 10*1e-11 10*1e-10 10*1e-9 10*1e-8 10*1e-7 10*1e-6 10*1e-5 10*1e-4  10*1e-3  10*1e-2 mol
	USE solution 1
	EQUILIBRIUM_PHASES 1
	        Mackinawite     0.0     0.0
	        Greigite        0.0     0.0
	        Pyrite          0.0     0.0 
	        Pyrrhotite      0.0     0.0
	USER_GRAPH 1 Simulation 6
	    -headings               Pyrite Greigite Mackinawite Pyrrhotite
	    -axis_titles            "Fe and S added, Log moles" "Mineral, moles"
	    -chart_title            "Iron dominant system with H2S as the oxidant"
	    -axis_scale sy_axis     auto auto auto auto log
	    -initial_solutions      false
	    -connect_simulations    false
	    -axis_scale y_axis      auto auto auto auto Log
	    -axis_scale sy_axis	    auto auto auto auto Log
	    -plot_concentration_vs  x
	  -start
	 5 PUT(GET(1) + RXN, 1)
	  20 PLOT_XY log10(GET(1)), EQUI("Pyrite") color = Green, line_w = 0,   	symbol = Plus, symbol_size = 5, y_axis = 2
	  30 PLOT_XY log10(GET(1)), EQUI("Greigite") color = Blue, line_w = 0,   	symbol = Plus, symbol_size = 5, y_axis = 2
	  40 PLOT_XY log10(GET(1)), EQUI("Mackinawite") color = Cyan, line_w = 0,   	symbol = Plus, symbol_size = 5, y_axis = 2
	  50 PLOT_XY log10(GET(1)), EQUI("Pyrrhotite") color = Red, line_w = 0,   	symbol = Plus, symbol_size = 5, y_axis = 2
	  -end
	    -active                 true
	SELECTED_OUTPUT
	    file                 H2S Fe dominated 250mV pH 6 unbuffered.csv
	    saturation_indices   Mackinawite  Greigite  Pyrite Pyrrhotite
	    reaction             
	    totals               Fe S
	    equilibrium_phases   Mackinawite  Greigite  Pyrite Pyrrhotite
	END
-----------------------------------------
Beginning of batch-reaction calculations.
-----------------------------------------

Reaction step 1.

Using solution 1.	PURE WATER
Using pure phase assemblage 1.	
Using reaction 1.	

Reaction 1.	

	  1.000e-12 moles of the following reaction have been added:

	                 Relative
	Reactant            moles

	Fe3S1                1.00000

	                 Relative
	Element             moles
	Fe                   3.00000
	S                    1.00000

-------------------------------Phase assemblage--------------------------------

                                                      Moles in assemblage
Phase               SI  log IAP  log K(T, P)   Initial       Final       Delta

Greigite        -49.28   -62.45    -13.18    0.000e+00           0   0.000e+00
Mackinawite     -14.71    -9.86      4.85    0.000e+00           0   0.000e+00
Pyrite          -13.79   -42.73    -28.93    0.000e+00           0   0.000e+00
Pyrrhotite      -13.61    -9.86      3.74    0.000e+00           0   0.000e+00

-----------------------------Solution composition------------------------------

	Elements           Molality       Moles

	Fe                3.000e-12   3.000e-12
	S                 1.000e-12   1.000e-12

----------------------------Description of solution----------------------------

                                       pH  =   6.999      Charge balance
                                       pe  =  -4.230      Adjusted to redox equilibrium
                        Activity of water  =   1.000
                 Ionic strength (mol/kgw)  =   1.003e-07
                       Mass of water (kg)  =   1.000e+00
                 Total alkalinity (eq/kg)  =   6.000e-12
                         Temperature (°C)  =  25.00
                  Electrical balance (eq)  =  -4.300e-16
 Percent error, 100*(Cat-|An|)/(Cat+|An|)  =  -0.00
                               Iterations  =   3
                                  Total H  = 1.110124e+02
                                  Total O  = 5.550622e+01

----------------------------Distribution of species----------------------------

                                               Log       Log       Log    mole V
   Species          Molality    Activity  Molality  Activity     Gamma    cm³/mol

   OH-             1.003e-07   1.002e-07    -6.999    -6.999    -0.000     (0)  
   H+              1.003e-07   1.002e-07    -6.999    -6.999    -0.000      0.00
   H2O             5.551e+01   1.000e+00     1.744    -0.000     0.000     18.07
Fe(2)         3.000e-12
   Fe+2            2.991e-12   2.986e-12   -11.524   -11.525    -0.001     (0)  
   FeOH+           9.425e-15   9.422e-15   -14.026   -14.026    -0.000     (0)  
   Fe(OH)2         8.001e-19   8.001e-19   -18.097   -18.097     0.000     (0)  
   Fe(OH)3-        2.967e-22   2.966e-22   -21.528   -21.528    -0.000     (0)  
   FeSO4           8.608e-27   8.608e-27   -26.065   -26.065     0.000     (0)  
   Fe(HS)2         7.347e-28   7.347e-28   -27.134   -27.134     0.000     (0)  
   Fe(HS)3-        4.205e-38   4.204e-38   -37.376   -37.376    -0.000     (0)  
Fe(3)         3.925e-21
   Fe(OH)2+        3.476e-21   3.475e-21   -20.459   -20.459    -0.000     (0)  
   Fe(OH)3         4.073e-22   4.073e-22   -21.390   -21.390     0.000     (0)  
   Fe(OH)4-        4.065e-23   4.064e-23   -22.391   -22.391    -0.000     (0)  
   FeOH+2          1.053e-24   1.052e-24   -23.977   -23.978    -0.001     (0)  
   Fe+3            1.638e-29   1.633e-29   -28.786   -28.787    -0.001     (0)  
   FeSO4+          0.000e+00   0.000e+00   -41.657   -41.657    -0.000     (0)  
   Fe2(OH)2+4      0.000e+00   0.000e+00   -46.524   -46.526    -0.003     (0)  
   Fe(SO4)2-       0.000e+00   0.000e+00   -56.947   -56.947    -0.000     (0)  
   Fe3(OH)4+5      0.000e+00   0.000e+00   -64.661   -64.665    -0.004     (0)  
H(0)          4.106e-09
   H2              2.053e-09   2.053e-09    -8.688    -8.688     0.000     (0)  
O(0)          0.000e+00
   O2              0.000e+00   0.000e+00   -75.005   -75.005     0.000     (0)  
S(-2)         1.000e-12
   HS-             5.256e-13   5.254e-13   -12.279   -12.279    -0.000     (0)  
   H2S             4.604e-13   4.604e-13   -12.337   -12.337     0.000     (0)  
   S5-2            1.334e-15   1.332e-15   -14.875   -14.875    -0.001     (0)  
   S4-2            7.783e-16   7.772e-16   -15.109   -15.109    -0.001     (0)  
   S6-2            6.905e-16   6.895e-16   -15.161   -15.161    -0.001     (0)  
   S-2             6.341e-19   6.332e-19   -18.198   -18.198    -0.001     (0)  
   S3-2            2.743e-19   2.739e-19   -18.562   -18.562    -0.001     (0)  
   S2-2            1.557e-20   1.554e-20   -19.808   -19.808    -0.001     (0)  
   Fe(HS)2         7.347e-28   7.347e-28   -27.134   -27.134     0.000     (0)  
   Fe(HS)3-        4.205e-38   4.204e-38   -37.376   -37.376    -0.000     (0)  
S(6)          1.624e-17
   SO4-2           1.624e-17   1.621e-17   -16.790   -16.790    -0.001     (0)  
   HSO4-           1.577e-22   1.577e-22   -21.802   -21.802    -0.000     (0)  
   FeSO4           8.608e-27   8.608e-27   -26.065   -26.065     0.000     (0)  
   FeSO4+          0.000e+00   0.000e+00   -41.657   -41.657    -0.000     (0)  
   Fe(SO4)2-       0.000e+00   0.000e+00   -56.947   -56.947    -0.000     (0)  

------------------------------Saturation indices-------------------------------

  Phase               SI** log IAP   log K(298 K,   1 atm)

  Fe2(SO4)3      -111.52   -107.94    3.58  Fe2(SO4)3
  Fe3(OH)8        -33.33    -13.11   20.22  Fe3(OH)8
  Ferrihydrite    -12.68     -7.79    4.89  Fe(OH)3
  FeS(ppt)        -12.89    -16.81   -3.92  FeS
  Goethite         -8.29     -7.79    0.50  FeOOH
  Greigite        -49.28    -62.45  -13.18  Fe3S4
  Hematite        -11.57    -15.58   -4.01  Fe2O3
  Jarosite-H      -72.85    -84.95  -12.10  (H3O)Fe3(SO4)2(OH)6
  Lepidocrocite    -9.16     -7.79    1.37  FeOOH
  Mackinawite     -14.71     -9.86    4.85  FeS
  Maghemite       -21.97    -15.58    6.39  Fe2O3
  Magnetite       -16.84    -13.11    3.74  Fe3O4
  Melanterite     -25.85    -28.32   -2.47  FeSO4:7H2O
  O2(g)           -72.04     11.08   83.12  O2
  pe_fix            4.23      4.23    0.00  e-
  pH_fix           -7.00     -7.00    0.00  H+
  Pyrite          -13.79    -42.73  -28.93  FeS2
  Pyrrhotite      -13.61     -9.86    3.74  FeS
  Sulfur          -11.63    -13.74   -2.11  S

**For a gas, SI = log10(fugacity). Fugacity = pressure * phi / 1 atm.
  For ideal gases, phi = 1.

Reaction step 2.

Using solution 1.	PURE WATER
Using pure phase assemblage 1.	
Using reaction 1.	

Reaction 1.	

	  1.000e-12 moles of the following reaction have been added:

	                 Relative
	Reactant            moles

	Fe3S1                1.00000

	                 Relative
	Element             moles
	Fe                   3.00000
	S                    1.00000

-------------------------------Phase assemblage--------------------------------

                                                      Moles in assemblage
Phase               SI  log IAP  log K(T, P)   Initial       Final       Delta

Greigite        -47.17   -60.35    -13.18    0.000e+00           0   0.000e+00
Mackinawite     -14.11    -9.26      4.85    0.000e+00           0   0.000e+00
Pyrite          -12.89   -41.82    -28.93    0.000e+00           0   0.000e+00
Pyrrhotite      -13.00    -9.26      3.74    0.000e+00           0   0.000e+00

-----------------------------Solution composition------------------------------

	Elements           Molality       Moles

	Fe                6.000e-12   6.000e-12
	S                 2.000e-12   2.000e-12

----------------------------Description of solution----------------------------

                                       pH  =   6.999      Charge balance
                                       pe  =  -4.230      Adjusted to redox equilibrium
                        Activity of water  =   1.000
                 Ionic strength (mol/kgw)  =   1.003e-07
                       Mass of water (kg)  =   1.000e+00
                 Total alkalinity (eq/kg)  =   1.200e-11
                         Temperature (°C)  =  25.00
                  Electrical balance (eq)  =  -4.300e-16
 Percent error, 100*(Cat-|An|)/(Cat+|An|)  =  -0.00
                               Iterations  =   5
                                  Total H  = 1.110124e+02
                                  Total O  = 5.550622e+01

----------------------------Distribution of species----------------------------

                                               Log       Log       Log    mole V
   Species          Molality    Activity  Molality  Activity     Gamma    cm³/mol

   OH-             1.003e-07   1.002e-07    -6.999    -6.999    -0.000     (0)  
   H+              1.003e-07   1.002e-07    -6.999    -6.999    -0.000      0.00
   H2O             5.551e+01   1.000e+00     1.744    -0.000     0.000     18.07
Fe(2)         6.000e-12
   Fe+2            5.981e-12   5.972e-12   -11.223   -11.224    -0.001     (0)  
   FeOH+           1.885e-14   1.884e-14   -13.725   -13.725    -0.000     (0)  
   Fe(OH)2         1.600e-18   1.600e-18   -17.796   -17.796     0.000     (0)  
   Fe(OH)3-        5.934e-22   5.932e-22   -21.227   -21.227    -0.000     (0)  
   FeSO4           3.430e-26   3.430e-26   -25.465   -25.465     0.000     (0)  
   Fe(HS)2         5.878e-27   5.878e-27   -26.231   -26.231     0.000     (0)  
   Fe(HS)3-        6.729e-37   6.726e-37   -36.172   -36.172    -0.000     (0)  
Fe(3)         7.846e-21
   Fe(OH)2+        6.949e-21   6.946e-21   -20.158   -20.158    -0.000     (0)  
   Fe(OH)3         8.143e-22   8.143e-22   -21.089   -21.089     0.000     (0)  
   Fe(OH)4-        8.127e-23   8.124e-23   -22.090   -22.090    -0.000     (0)  
   FeOH+2          2.106e-24   2.102e-24   -23.677   -23.677    -0.001     (0)  
   Fe+3            3.274e-29   3.264e-29   -28.485   -28.486    -0.001     (0)  
   FeSO4+          0.000e+00   0.000e+00   -41.057   -41.057    -0.000     (0)  
   Fe2(OH)2+4      0.000e+00   0.000e+00   -45.922   -45.925    -0.003     (0)  
   Fe(SO4)2-       0.000e+00   0.000e+00   -56.048   -56.048    -0.000     (0)  
   Fe3(OH)4+5      0.000e+00   0.000e+00   -63.759   -63.763    -0.004     (0)  
H(0)          4.110e-09
   H2              2.055e-09   2.055e-09    -8.687    -8.687     0.000     (0)  
O(0)          0.000e+00
   O2              0.000e+00   0.000e+00   -75.006   -75.006     0.000     (0)  
S(-2)         2.000e-12
   HS-             1.051e-12   1.051e-12   -11.978   -11.978    -0.000     (0)  
   H2S             9.209e-13   9.209e-13   -12.036   -12.036     0.000     (0)  
   S5-2            2.668e-15   2.664e-15   -14.574   -14.574    -0.001     (0)  
   S4-2            1.557e-15   1.554e-15   -14.808   -14.808    -0.001     (0)  
   S6-2            1.381e-15   1.379e-15   -14.860   -14.860    -0.001     (0)  
   S-2             1.268e-18   1.266e-18   -17.897   -17.897    -0.001     (0)  
   S3-2            5.485e-19   5.477e-19   -18.261   -18.261    -0.001     (0)  
   S2-2            3.113e-20   3.109e-20   -19.507   -19.507    -0.001     (0)  
   Fe(HS)2         5.878e-27   5.878e-27   -26.231   -26.231     0.000     (0)  
   Fe(HS)3-        6.729e-37   6.726e-37   -36.172   -36.172    -0.000     (0)  
S(6)          3.235e-17
   SO4-2           3.234e-17   3.230e-17   -16.490   -16.491    -0.001     (0)  
   HSO4-           3.142e-22   3.141e-22   -21.503   -21.503    -0.000     (0)  
   FeSO4           3.430e-26   3.430e-26   -25.465   -25.465     0.000     (0)  
   FeSO4+          0.000e+00   0.000e+00   -41.057   -41.057    -0.000     (0)  
   Fe(SO4)2-       0.000e+00   0.000e+00   -56.048   -56.048    -0.000     (0)  

------------------------------Saturation indices-------------------------------

  Phase               SI** log IAP   log K(298 K,   1 atm)

  Fe2(SO4)3      -110.03   -106.45    3.58  Fe2(SO4)3
  Fe3(OH)8        -32.43    -12.20   20.22  Fe3(OH)8
  Ferrihydrite    -12.38     -7.49    4.89  Fe(OH)3
  FeS(ppt)        -12.29    -16.20   -3.92  FeS
  Goethite         -7.99     -7.49    0.50  FeOOH
  Greigite        -47.17    -60.35  -13.18  Fe3S4
  Hematite        -10.97    -14.98   -4.01  Fe2O3
  Jarosite-H      -71.35    -83.45  -12.10  (H3O)Fe3(SO4)2(OH)6
  Lepidocrocite    -8.86     -7.49    1.37  FeOOH
  Mackinawite     -14.11     -9.26    4.85  FeS
  Maghemite       -21.36    -14.98    6.39  Fe2O3
  Magnetite       -15.94    -12.20    3.74  Fe3O4
  Melanterite     -25.24    -27.71   -2.47  FeSO4:7H2O
  O2(g)           -72.05     11.07   83.12  O2
  pe_fix            4.23      4.23    0.00  e-
  pH_fix           -7.00     -7.00    0.00  H+
  Pyrite          -12.89    -41.82  -28.93  FeS2
  Pyrrhotite      -13.00     -9.26    3.74  FeS
  Sulfur          -11.33    -13.44   -2.11  S

**For a gas, SI = log10(fugacity). Fugacity = pressure * phi / 1 atm.
  For ideal gases, phi = 1.

Reaction step 3.

Using solution 1.	PURE WATER
Using pure phase assemblage 1.	
Using reaction 1.	

Reaction 1.	

	  1.000e-12 moles of the following reaction have been added:

	                 Relative
	Reactant            moles

	Fe3S1                1.00000

	                 Relative
	Element             moles
	Fe                   3.00000
	S                    1.00000

-------------------------------Phase assemblage--------------------------------

                                                      Moles in assemblage
Phase               SI  log IAP  log K(T, P)   Initial       Final       Delta

Greigite        -45.94   -59.12    -13.18    0.000e+00           0   0.000e+00
Mackinawite     -13.76    -8.91      4.85    0.000e+00           0   0.000e+00
Pyrite          -12.36   -41.30    -28.93    0.000e+00           0   0.000e+00
Pyrrhotite      -12.65    -8.91      3.74    0.000e+00           0   0.000e+00

-----------------------------Solution composition------------------------------

	Elements           Molality       Moles

	Fe                9.000e-12   9.000e-12
	S                 3.000e-12   3.000e-12

----------------------------Description of solution----------------------------

                                       pH  =   6.999      Charge balance
                                       pe  =  -4.231      Adjusted to redox equilibrium
                        Activity of water  =   1.000
                 Ionic strength (mol/kgw)  =   1.003e-07
                       Mass of water (kg)  =   1.000e+00
                 Total alkalinity (eq/kg)  =   1.800e-11
                         Temperature (°C)  =  25.00
                  Electrical balance (eq)  =  -4.300e-16
 Percent error, 100*(Cat-|An|)/(Cat+|An|)  =  -0.00
                               Iterations  =   4
                                  Total H  = 1.110124e+02
                                  Total O  = 5.550622e+01

----------------------------Distribution of species----------------------------

                                               Log       Log       Log    mole V
   Species          Molality    Activity  Molality  Activity     Gamma    cm³/mol

   OH-             1.003e-07   1.002e-07    -6.999    -6.999    -0.000     (0)  
   H+              1.003e-07   1.002e-07    -6.999    -6.999    -0.000      0.00
   H2O             5.551e+01   1.000e+00     1.744    -0.000     0.000     18.07
Fe(2)         9.000e-12
   Fe+2            8.972e-12   8.958e-12   -11.047   -11.048    -0.001     (0)  
   FeOH+           2.828e-14   2.827e-14   -13.549   -13.549    -0.000     (0)  
   Fe(OH)2         2.400e-18   2.400e-18   -17.620   -17.620     0.000     (0)  
   Fe(OH)3-        8.902e-22   8.899e-22   -21.051   -21.051    -0.000     (0)  
   FeSO4           7.688e-26   7.688e-26   -25.114   -25.114     0.000     (0)  
   Fe(HS)2         1.984e-26   1.984e-26   -25.702   -25.702     0.000     (0)  
   Fe(HS)3-        3.406e-36   3.405e-36   -35.468   -35.468    -0.000     (0)  
Fe(3)         1.176e-20
   Fe(OH)2+        1.042e-20   1.041e-20   -19.982   -19.982    -0.000     (0)  
   Fe(OH)3         1.221e-21   1.221e-21   -20.913   -20.913     0.000     (0)  
   Fe(OH)4-        1.219e-22   1.218e-22   -21.914   -21.914    -0.000     (0)  
   FeOH+2          3.157e-24   3.152e-24   -23.501   -23.501    -0.001     (0)  
   Fe+3            4.909e-29   4.893e-29   -28.309   -28.310    -0.001     (0)  
   FeSO4+          0.000e+00   0.000e+00   -40.707   -40.707    -0.000     (0)  
   Fe2(OH)2+4      0.000e+00   0.000e+00   -45.570   -45.573    -0.003     (0)  
   Fe(SO4)2-       0.000e+00   0.000e+00   -55.523   -55.523    -0.000     (0)  
   Fe3(OH)4+5      0.000e+00   0.000e+00   -63.231   -63.235    -0.004     (0)  
H(0)          4.114e-09
   H2              2.057e-09   2.057e-09    -8.687    -8.687     0.000     (0)  
O(0)          0.000e+00
   O2              0.000e+00   0.000e+00   -75.007   -75.007     0.000     (0)  
S(-2)         3.000e-12
   HS-             1.577e-12   1.576e-12   -11.802   -11.802    -0.000     (0)  
   H2S             1.381e-12   1.381e-12   -11.860   -11.860     0.000     (0)  
   S5-2            4.002e-15   3.996e-15   -14.398   -14.398    -0.001     (0)  
   S4-2            2.335e-15   2.332e-15   -14.632   -14.632    -0.001     (0)  
   S6-2            2.072e-15   2.069e-15   -14.684   -14.684    -0.001     (0)  
   S-2             1.902e-18   1.900e-18   -17.721   -17.721    -0.001     (0)  
   S3-2            8.228e-19   8.216e-19   -18.085   -18.085    -0.001     (0)  
   S2-2            4.670e-20   4.663e-20   -19.331   -19.331    -0.001     (0)  
   Fe(HS)2         1.984e-26   1.984e-26   -25.702   -25.702     0.000     (0)  
   Fe(HS)3-        3.406e-36   3.405e-36   -35.468   -35.468    -0.000     (0)  
S(6)          4.833e-17
   SO4-2           4.833e-17   4.826e-17   -16.316   -16.316    -0.001     (0)  
   HSO4-           4.695e-22   4.693e-22   -21.328   -21.329    -0.000     (0)  
   FeSO4           7.688e-26   7.688e-26   -25.114   -25.114     0.000     (0)  
   FeSO4+          0.000e+00   0.000e+00   -40.707   -40.707    -0.000     (0)  
   Fe(SO4)2-       0.000e+00   0.000e+00   -55.523   -55.523    -0.000     (0)  

------------------------------Saturation indices-------------------------------

  Phase               SI** log IAP   log K(298 K,   1 atm)

  Fe2(SO4)3      -109.15   -105.57    3.58  Fe2(SO4)3
  Fe3(OH)8        -31.90    -11.68   20.22  Fe3(OH)8
  Ferrihydrite    -12.20     -7.31    4.89  Fe(OH)3
  FeS(ppt)        -11.94    -15.85   -3.92  FeS
  Goethite         -7.81     -7.31    0.50  FeOOH
  Greigite        -45.94    -59.12  -13.18  Fe3S4
  Hematite        -10.62    -14.63   -4.01  Fe2O3
  Jarosite-H      -70.47    -82.57  -12.10  (H3O)Fe3(SO4)2(OH)6
  Lepidocrocite    -8.68     -7.31    1.37  FeOOH
  Mackinawite     -13.76     -8.91    4.85  FeS
  Maghemite       -21.01    -14.63    6.39  Fe2O3
  Magnetite       -15.41    -11.68    3.74  Fe3O4
  Melanterite     -24.89    -27.36   -2.47  FeSO4:7H2O
  O2(g)           -72.05     11.07   83.12  O2
  pe_fix            4.23      4.23    0.00  e-
  pH_fix           -7.00     -7.00    0.00  H+
  Pyrite          -12.36    -41.30  -28.93  FeS2
  Pyrrhotite      -12.65     -8.91    3.74  FeS
  Sulfur          -11.15    -13.26   -2.11  S

**For a gas, SI = log10(fugacity). Fugacity = pressure * phi / 1 atm.
  For ideal gases, phi = 1.

Reaction step 4.

Using solution 1.	PURE WATER
Using pure phase assemblage 1.	
Using reaction 1.	

Reaction 1.	

	  1.000e-12 moles of the following reaction have been added:

	                 Relative
	Reactant            moles

	Fe3S1                1.00000

	                 Relative
	Element             moles
	Fe                   3.00000
	S                    1.00000

-------------------------------Phase assemblage--------------------------------

                                                      Moles in assemblage
Phase               SI  log IAP  log K(T, P)   Initial       Final       Delta

Greigite        -45.06   -58.24    -13.18    0.000e+00           0   0.000e+00
Mackinawite     -13.51    -8.66      4.85    0.000e+00           0   0.000e+00
Pyrite          -11.99   -40.92    -28.93    0.000e+00           0   0.000e+00
Pyrrhotite      -12.40    -8.66      3.74    0.000e+00           0   0.000e+00

-----------------------------Solution composition------------------------------

	Elements           Molality       Moles

	Fe                1.200e-11   1.200e-11
	S                 4.000e-12   4.000e-12

----------------------------Description of solution----------------------------

                                       pH  =   6.999      Charge balance
                                       pe  =  -4.231      Adjusted to redox equilibrium
                        Activity of water  =   1.000
                 Ionic strength (mol/kgw)  =   1.003e-07
                       Mass of water (kg)  =   1.000e+00
                 Total alkalinity (eq/kg)  =   2.400e-11
                         Temperature (°C)  =  25.00
                  Electrical balance (eq)  =  -4.300e-16
 Percent error, 100*(Cat-|An|)/(Cat+|An|)  =  -0.00
                               Iterations  =   4
                                  Total H  = 1.110124e+02
                                  Total O  = 5.550622e+01

----------------------------Distribution of species----------------------------

                                               Log       Log       Log    mole V
   Species          Molality    Activity  Molality  Activity     Gamma    cm³/mol

   OH-             1.003e-07   1.002e-07    -6.999    -6.999    -0.000     (0)  
   H+              1.003e-07   1.002e-07    -6.999    -6.999    -0.000      0.00
   H2O             5.551e+01   1.000e+00     1.744    -0.000     0.000     18.07
Fe(2)         1.200e-11
   Fe+2            1.196e-11   1.194e-11   -10.922   -10.923    -0.001     (0)  
   FeOH+           3.770e-14   3.769e-14   -13.424   -13.424    -0.000     (0)  
   Fe(OH)2         3.201e-18   3.201e-18   -17.495   -17.495     0.000     (0)  
   Fe(OH)3-        1.187e-21   1.187e-21   -20.926   -20.926    -0.000     (0)  
   FeSO4           1.361e-25   1.361e-25   -24.866   -24.866     0.000     (0)  
   Fe(HS)2         4.703e-26   4.703e-26   -25.328   -25.328     0.000     (0)  
   Fe(HS)3-        1.077e-35   1.076e-35   -34.968   -34.968    -0.000     (0)  
Fe(3)         1.568e-20
   Fe(OH)2+        1.388e-20   1.388e-20   -19.857   -19.858    -0.000     (0)  
   Fe(OH)3         1.627e-21   1.627e-21   -20.789   -20.789     0.000     (0)  
   Fe(OH)4-        1.624e-22   1.624e-22   -21.789   -21.790    -0.000     (0)  
   FeOH+2          4.207e-24   4.201e-24   -23.376   -23.377    -0.001     (0)  
   Fe+3            6.542e-29   6.520e-29   -28.184   -28.186    -0.001     (0)  
   FeSO4+          0.000e+00   0.000e+00   -40.459   -40.459    -0.000     (0)  
   Fe2(OH)2+4      0.000e+00   0.000e+00   -45.321   -45.323    -0.003     (0)  
   Fe(SO4)2-       0.000e+00   0.000e+00   -55.152   -55.152    -0.000     (0)  
   Fe3(OH)4+5      0.000e+00   0.000e+00   -62.857   -62.861    -0.004     (0)  
H(0)          4.118e-09
   H2              2.059e-09   2.059e-09    -8.686    -8.686     0.000     (0)  
O(0)          0.000e+00
   O2              0.000e+00   0.000e+00   -75.007   -75.007     0.000     (0)  
S(-2)         4.000e-12
   HS-             2.103e-12   2.102e-12   -11.677   -11.677    -0.000     (0)  
   H2S             1.842e-12   1.842e-12   -11.735   -11.735     0.000     (0)  
   S5-2            5.337e-15   5.329e-15   -14.273   -14.273    -0.001     (0)  
   S4-2            3.114e-15   3.109e-15   -14.507   -14.507    -0.001     (0)  
   S6-2            2.762e-15   2.758e-15   -14.559   -14.559    -0.001     (0)  
   S-2             2.537e-18   2.533e-18   -17.596   -17.596    -0.001     (0)  
   S3-2            1.097e-18   1.096e-18   -17.960   -17.960    -0.001     (0)  
   S2-2            6.227e-20   6.218e-20   -19.206   -19.206    -0.001     (0)  
   Fe(HS)2         4.703e-26   4.703e-26   -25.328   -25.328     0.000     (0)  
   Fe(HS)3-        1.077e-35   1.076e-35   -34.968   -34.968    -0.000     (0)  
S(6)          6.419e-17
   SO4-2           6.419e-17   6.410e-17   -16.193   -16.193    -0.001     (0)  
   HSO4-           6.236e-22   6.233e-22   -21.205   -21.205    -0.000     (0)  
   FeSO4           1.361e-25   1.361e-25   -24.866   -24.866     0.000     (0)  
   FeSO4+          0.000e+00   0.000e+00   -40.459   -40.459    -0.000     (0)  
   Fe(SO4)2-       0.000e+00   0.000e+00   -55.152   -55.152    -0.000     (0)  

------------------------------Saturation indices-------------------------------

  Phase               SI** log IAP   log K(298 K,   1 atm)

  Fe2(SO4)3      -108.53   -104.95    3.58  Fe2(SO4)3
  Fe3(OH)8        -31.52    -11.30   20.22  Fe3(OH)8
  Ferrihydrite    -12.08     -7.19    4.89  Fe(OH)3
  FeS(ppt)        -11.69    -15.60   -3.92  FeS
  Goethite         -7.69     -7.19    0.50  FeOOH
  Greigite        -45.06    -58.24  -13.18  Fe3S4
  Hematite        -10.37    -14.38   -4.01  Fe2O3
  Jarosite-H      -69.85    -81.95  -12.10  (H3O)Fe3(SO4)2(OH)6
  Lepidocrocite    -8.56     -7.19    1.37  FeOOH
  Mackinawite     -13.51     -8.66    4.85  FeS
  Maghemite       -20.76    -14.38    6.39  Fe2O3
  Magnetite       -15.04    -11.30    3.74  Fe3O4
  Melanterite     -24.65    -27.12   -2.47  FeSO4:7H2O
  O2(g)           -72.05     11.07   83.12  O2
  pe_fix            4.23      4.23    0.00  e-
  pH_fix           -7.00     -7.00    0.00  H+
  Pyrite          -11.99    -40.92  -28.93  FeS2
  Pyrrhotite      -12.40     -8.66    3.74  FeS
  Sulfur          -11.03    -13.14   -2.11  S

**For a gas, SI = log10(fugacity). Fugacity = pressure * phi / 1 atm.
  For ideal gases, phi = 1.

Reaction step 5.

Using solution 1.	PURE WATER
Using pure phase assemblage 1.	
Using reaction 1.	

Reaction 1.	

	  1.000e-12 moles of the following reaction have been added:

	                 Relative
	Reactant            moles

	Fe3S1                1.00000

	                 Relative
	Element             moles
	Fe                   3.00000
	S                    1.00000

-------------------------------Phase assemblage--------------------------------

                                                      Moles in assemblage
Phase               SI  log IAP  log K(T, P)   Initial       Final       Delta

Greigite        -44.38   -57.56    -13.18    0.000e+00           0   0.000e+00
Mackinawite     -13.32    -8.47      4.85    0.000e+00           0   0.000e+00
Pyrite          -11.70   -40.63    -28.93    0.000e+00           0   0.000e+00
Pyrrhotite      -12.21    -8.47      3.74    0.000e+00           0   0.000e+00

-----------------------------Solution composition------------------------------

	Elements           Molality       Moles

	Fe                1.500e-11   1.500e-11
	S                 5.000e-12   5.000e-12

----------------------------Description of solution----------------------------

                                       pH  =   6.999      Charge balance
                                       pe  =  -4.231      Adjusted to redox equilibrium
                        Activity of water  =   1.000
                 Ionic strength (mol/kgw)  =   1.003e-07
                       Mass of water (kg)  =   1.000e+00
                 Total alkalinity (eq/kg)  =   3.000e-11
                         Temperature (°C)  =  25.00
                  Electrical balance (eq)  =  -4.283e-16
 Percent error, 100*(Cat-|An|)/(Cat+|An|)  =  -0.00
                               Iterations  =   3
                                  Total H  = 1.110124e+02
                                  Total O  = 5.550622e+01

----------------------------Distribution of species----------------------------

                                               Log       Log       Log    mole V
   Species          Molality    Activity  Molality  Activity     Gamma    cm³/mol

   OH-             1.003e-07   1.002e-07    -6.999    -6.999    -0.000     (0)  
   H+              1.003e-07   1.002e-07    -6.999    -6.999    -0.000      0.00
   H2O             5.551e+01   1.000e+00     1.744    -0.000     0.000     18.07
Fe(2)         1.500e-11
   Fe+2            1.495e-11   1.493e-11   -10.825   -10.826    -0.001     (0)  
   FeOH+           4.713e-14   4.711e-14   -13.327   -13.327    -0.000     (0)  
   Fe(OH)2         4.001e-18   4.001e-18   -17.398   -17.398     0.000     (0)  
   Fe(OH)3-        1.484e-21   1.483e-21   -20.829   -20.829    -0.000     (0)  
   FeSO4           2.119e-25   2.119e-25   -24.674   -24.674     0.000     (0)  
   Fe(HS)2         9.185e-26   9.185e-26   -25.037   -25.037     0.000     (0)  
   Fe(HS)3-        2.629e-35   2.628e-35   -34.580   -34.580    -0.000     (0)  
Fe(3)         1.959e-20
   Fe(OH)2+        1.735e-20   1.734e-20   -19.761   -19.761    -0.000     (0)  
   Fe(OH)3         2.033e-21   2.033e-21   -20.692   -20.692     0.000     (0)  
   Fe(OH)4-        2.029e-22   2.029e-22   -21.693   -21.693    -0.000     (0)  
   FeOH+2          5.256e-24   5.248e-24   -23.279   -23.280    -0.001     (0)  
   Fe+3            8.174e-29   8.146e-29   -28.088   -28.089    -0.001     (0)  
   FeSO4+          0.000e+00   0.000e+00   -40.267   -40.267    -0.000     (0)  
   Fe2(OH)2+4      0.000e+00   0.000e+00   -45.127   -45.130    -0.003     (0)  
   Fe(SO4)2-       0.000e+00   0.000e+00   -54.865   -54.865    -0.000     (0)  
   Fe3(OH)4+5      0.000e+00   0.000e+00   -62.567   -62.571    -0.004     (0)  
H(0)          4.122e-09
   H2              2.061e-09   2.061e-09    -8.686    -8.686     0.000     (0)  
O(0)          0.000e+00
   O2              0.000e+00   0.000e+00   -75.008   -75.008     0.000     (0)  
S(-2)         5.000e-12
   HS-             2.628e-12   2.627e-12   -11.580   -11.581    -0.000     (0)  
   H2S             2.302e-12   2.302e-12   -11.638   -11.638     0.000     (0)  
   S5-2            6.671e-15   6.661e-15   -14.176   -14.176    -0.001     (0)  
   S4-2            3.892e-15   3.886e-15   -14.410   -14.410    -0.001     (0)  
   S6-2            3.453e-15   3.448e-15   -14.462   -14.462    -0.001     (0)  
   S-2             3.171e-18   3.166e-18   -17.499   -17.499    -0.001     (0)  
   S3-2            1.372e-18   1.369e-18   -17.863   -17.863    -0.001     (0)  
   S2-2            7.784e-20   7.772e-20   -19.109   -19.109    -0.001     (0)  
   Fe(HS)2         9.185e-26   9.185e-26   -25.037   -25.037     0.000     (0)  
   Fe(HS)3-        2.629e-35   2.628e-35   -34.580   -34.580    -0.000     (0)  
S(6)          7.993e-17
   SO4-2           7.993e-17   7.981e-17   -16.097   -16.098    -0.001     (0)  
   HSO4-           7.764e-22   7.761e-22   -21.110   -21.110    -0.000     (0)  
   FeSO4           2.119e-25   2.119e-25   -24.674   -24.674     0.000     (0)  
   FeSO4+          0.000e+00   0.000e+00   -40.267   -40.267    -0.000     (0)  
   Fe(SO4)2-       0.000e+00   0.000e+00   -54.865   -54.865    -0.000     (0)  

------------------------------Saturation indices-------------------------------

  Phase               SI** log IAP   log K(298 K,   1 atm)

  Fe2(SO4)3      -108.05   -104.47    3.58  Fe2(SO4)3
  Fe3(OH)8        -31.23    -11.01   20.22  Fe3(OH)8
  Ferrihydrite    -11.98     -7.09    4.89  Fe(OH)3
  FeS(ppt)        -11.49    -15.41   -3.92  FeS
  Goethite         -7.59     -7.09    0.50  FeOOH
  Greigite        -44.38    -57.56  -13.18  Fe3S4
  Hematite        -10.18    -14.18   -4.01  Fe2O3
  Jarosite-H      -69.37    -81.47  -12.10  (H3O)Fe3(SO4)2(OH)6
  Lepidocrocite    -8.46     -7.09    1.37  FeOOH
  Mackinawite     -13.32     -8.47    4.85  FeS
  Maghemite       -20.57    -14.18    6.39  Fe2O3
  Magnetite       -14.75    -11.01    3.74  Fe3O4
  Melanterite     -24.45    -26.92   -2.47  FeSO4:7H2O
  O2(g)           -72.05     11.07   83.12  O2
  pe_fix            4.23      4.23    0.00  e-
  pH_fix           -7.00     -7.00    0.00  H+
  Pyrite          -11.70    -40.63  -28.93  FeS2
  Pyrrhotite      -12.21     -8.47    3.74  FeS
  Sulfur          -10.93    -13.04   -2.11  S

**For a gas, SI = log10(fugacity). Fugacity = pressure * phi / 1 atm.
  For ideal gases, phi = 1.

Reaction step 6.

Using solution 1.	PURE WATER
Using pure phase assemblage 1.	
Using reaction 1.	

Reaction 1.	

	  1.000e-12 moles of the following reaction have been added:

	                 Relative
	Reactant            moles

	Fe3S1                1.00000

	                 Relative
	Element             moles
	Fe                   3.00000
	S                    1.00000

-------------------------------Phase assemblage--------------------------------

                                                      Moles in assemblage
Phase               SI  log IAP  log K(T, P)   Initial       Final       Delta

Greigite        -43.83   -57.01    -13.18    0.000e+00           0   0.000e+00
Mackinawite     -13.16    -8.31      4.85    0.000e+00           0   0.000e+00
Pyrite          -11.46   -40.39    -28.93    0.000e+00           0   0.000e+00
Pyrrhotite      -12.05    -8.31      3.74    0.000e+00           0   0.000e+00

-----------------------------Solution composition------------------------------

	Elements           Molality       Moles

	Fe                1.800e-11   1.800e-11
	S                 6.000e-12   6.000e-12

----------------------------Description of solution----------------------------

                                       pH  =   6.999      Charge balance
                                       pe  =  -4.231      Adjusted to redox equilibrium
                        Activity of water  =   1.000
                 Ionic strength (mol/kgw)  =   1.003e-07
                       Mass of water (kg)  =   1.000e+00
                 Total alkalinity (eq/kg)  =   3.600e-11
                         Temperature (°C)  =  25.00
                  Electrical balance (eq)  =  -4.279e-16
 Percent error, 100*(Cat-|An|)/(Cat+|An|)  =  -0.00
                               Iterations  =   3
                                  Total H  = 1.110124e+02
                                  Total O  = 5.550622e+01

----------------------------Distribution of species----------------------------

                                               Log       Log       Log    mole V
   Species          Molality    Activity  Molality  Activity     Gamma    cm³/mol

   OH-             1.003e-07   1.002e-07    -6.999    -6.999    -0.000     (0)  
   H+              1.003e-07   1.002e-07    -6.999    -6.999    -0.000      0.00
   H2O             5.551e+01   1.000e+00     1.744    -0.000     0.000     18.07
Fe(2)         1.800e-11
   Fe+2            1.794e-11   1.792e-11   -10.746   -10.747    -0.001     (0)  
   FeOH+           5.656e-14   5.654e-14   -13.248   -13.248    -0.000     (0)  
   Fe(OH)2         4.802e-18   4.802e-18   -17.319   -17.319     0.000     (0)  
   Fe(OH)3-        1.781e-21   1.780e-21   -20.749   -20.750    -0.000     (0)  
   FeSO4           3.040e-25   3.040e-25   -24.517   -24.517     0.000     (0)  
   Fe(HS)2         1.587e-25   1.587e-25   -24.799   -24.799     0.000     (0)  
   Fe(HS)3-        5.451e-35   5.449e-35   -34.264   -34.264    -0.000     (0)  
Fe(3)         2.350e-20
   Fe(OH)2+        2.081e-20   2.080e-20   -19.682   -19.682    -0.000     (0)  
   Fe(OH)3         2.439e-21   2.439e-21   -20.613   -20.613     0.000     (0)  
   Fe(OH)4-        2.434e-22   2.433e-22   -21.614   -21.614    -0.000     (0)  
   FeOH+2          6.304e-24   6.295e-24   -23.200   -23.201    -0.001     (0)  
   Fe+3            9.803e-29   9.770e-29   -28.009   -28.010    -0.001     (0)  
   FeSO4+          0.000e+00   0.000e+00   -40.110   -40.111    -0.000     (0)  
   Fe2(OH)2+4      0.000e+00   0.000e+00   -44.969   -44.972    -0.003     (0)  
   Fe(SO4)2-       0.000e+00   0.000e+00   -54.631   -54.631    -0.000     (0)  
   Fe3(OH)4+5      0.000e+00   0.000e+00   -62.330   -62.334    -0.004     (0)  
H(0)          4.126e-09
   H2              2.063e-09   2.063e-09    -8.685    -8.685     0.000     (0)  
O(0)          0.000e+00
   O2              0.000e+00   0.000e+00   -75.009   -75.009     0.000     (0)  
S(-2)         6.000e-12
   HS-             3.154e-12   3.153e-12   -11.501   -11.501    -0.000     (0)  
   H2S             2.762e-12   2.762e-12   -11.559   -11.559     0.000     (0)  
   S5-2            8.006e-15   7.994e-15   -14.097   -14.097    -0.001     (0)  
   S4-2            4.671e-15   4.664e-15   -14.331   -14.331    -0.001     (0)  
   S6-2            4.144e-15   4.138e-15   -14.383   -14.383    -0.001     (0)  
   S-2             3.805e-18   3.800e-18   -17.420   -17.420    -0.001     (0)  
   S3-2            1.646e-18   1.643e-18   -17.784   -17.784    -0.001     (0)  
   S2-2            9.341e-20   9.327e-20   -19.030   -19.030    -0.001     (0)  
   Fe(HS)2         1.587e-25   1.587e-25   -24.799   -24.799     0.000     (0)  
   Fe(HS)3-        5.451e-35   5.449e-35   -34.264   -34.264    -0.000     (0)  
S(6)          9.555e-17
   SO4-2           9.554e-17   9.540e-17   -16.020   -16.020    -0.001     (0)  
   HSO4-           9.281e-22   9.278e-22   -21.032   -21.033    -0.000     (0)  
   FeSO4           3.040e-25   3.040e-25   -24.517   -24.517     0.000     (0)  
   FeSO4+          0.000e+00   0.000e+00   -40.110   -40.111    -0.000     (0)  
   Fe(SO4)2-       0.000e+00   0.000e+00   -54.631   -54.631    -0.000     (0)  

------------------------------Saturation indices-------------------------------

  Phase               SI** log IAP   log K(298 K,   1 atm)

  Fe2(SO4)3      -107.66   -104.08    3.58  Fe2(SO4)3
  Fe3(OH)8        -31.00    -10.77   20.22  Fe3(OH)8
  Ferrihydrite    -11.90     -7.01    4.89  Fe(OH)3
  FeS(ppt)        -11.33    -15.25   -3.92  FeS
  Goethite         -7.51     -7.01    0.50  FeOOH
  Greigite        -43.83    -57.01  -13.18  Fe3S4
  Hematite        -10.02    -14.03   -4.01  Fe2O3
  Jarosite-H      -68.98    -81.08  -12.10  (H3O)Fe3(SO4)2(OH)6
  Lepidocrocite    -8.38     -7.01    1.37  FeOOH
  Mackinawite     -13.16     -8.31    4.85  FeS
  Maghemite       -20.41    -14.03    6.39  Fe2O3
  Magnetite       -14.51    -10.77    3.74  Fe3O4
  Melanterite     -24.30    -26.77   -2.47  FeSO4:7H2O
  O2(g)           -72.05     11.07   83.12  O2
  pe_fix            4.23      4.23    0.00  e-
  pH_fix           -7.00     -7.00    0.00  H+
  Pyrite          -11.46    -40.39  -28.93  FeS2
  Pyrrhotite      -12.05     -8.31    3.74  FeS
  Sulfur          -10.85    -12.96   -2.11  S

**For a gas, SI = log10(fugacity). Fugacity = pressure * phi / 1 atm.
  For ideal gases, phi = 1.

Reaction step 7.

Using solution 1.	PURE WATER
Using pure phase assemblage 1.	
Using reaction 1.	

Reaction 1.	

	  1.000e-12 moles of the following reaction have been added:

	                 Relative
	Reactant            moles

	Fe3S1                1.00000

	                 Relative
	Element             moles
	Fe                   3.00000
	S                    1.00000

-------------------------------Phase assemblage--------------------------------

                                                      Moles in assemblage
Phase               SI  log IAP  log K(T, P)   Initial       Final       Delta

Greigite        -43.36   -56.54    -13.18    0.000e+00           0   0.000e+00
Mackinawite     -13.02    -8.17      4.85    0.000e+00           0   0.000e+00
Pyrite          -11.26   -40.19    -28.93    0.000e+00           0   0.000e+00
Pyrrhotite      -11.92    -8.17      3.74    0.000e+00           0   0.000e+00

-----------------------------Solution composition------------------------------

	Elements           Molality       Moles

	Fe                2.100e-11   2.100e-11
	S                 7.000e-12   7.000e-12

----------------------------Description of solution----------------------------

                                       pH  =   6.999      Charge balance
                                       pe  =  -4.232      Adjusted to redox equilibrium
                        Activity of water  =   1.000
                 Ionic strength (mol/kgw)  =   1.003e-07
                       Mass of water (kg)  =   1.000e+00
                 Total alkalinity (eq/kg)  =   4.200e-11
                         Temperature (°C)  =  25.00
                  Electrical balance (eq)  =  -4.278e-16
 Percent error, 100*(Cat-|An|)/(Cat+|An|)  =  -0.00
                               Iterations  =   3
                                  Total H  = 1.110124e+02
                                  Total O  = 5.550622e+01

----------------------------Distribution of species----------------------------

                                               Log       Log       Log    mole V
   Species          Molality    Activity  Molality  Activity     Gamma    cm³/mol

   OH-             1.003e-07   1.002e-07    -6.999    -6.999    -0.000     (0)  
   H+              1.002e-07   1.002e-07    -6.999    -6.999    -0.000      0.00
   H2O             5.551e+01   1.000e+00     1.744    -0.000     0.000     18.07
Fe(2)         2.100e-11
   Fe+2            2.093e-11   2.090e-11   -10.679   -10.680    -0.001     (0)  
   FeOH+           6.599e-14   6.596e-14   -13.181   -13.181    -0.000     (0)  
   Fe(OH)2         5.602e-18   5.602e-18   -17.252   -17.252     0.000     (0)  
   Fe(OH)3-        2.078e-21   2.077e-21   -20.682   -20.683    -0.000     (0)  
   FeSO4           4.121e-25   4.121e-25   -24.385   -24.385     0.000     (0)  
   Fe(HS)2         2.520e-25   2.520e-25   -24.599   -24.599     0.000     (0)  
   Fe(HS)3-        1.010e-34   1.010e-34   -33.996   -33.996    -0.000     (0)  
Fe(3)         2.740e-20
   Fe(OH)2+        2.426e-20   2.426e-20   -19.615   -19.615    -0.000     (0)  
   Fe(OH)3         2.844e-21   2.844e-21   -20.546   -20.546     0.000     (0)  
   Fe(OH)4-        2.839e-22   2.838e-22   -21.547   -21.547    -0.000     (0)  
   FeOH+2          7.351e-24   7.340e-24   -23.134   -23.134    -0.001     (0)  
   Fe+3            1.143e-28   1.139e-28   -27.942   -27.943    -0.001     (0)  
   FeSO4+          1.051e-40   1.051e-40   -39.978   -39.979    -0.000     (0)  
   Fe2(OH)2+4      0.000e+00   0.000e+00   -44.836   -44.839    -0.003     (0)  
   Fe(SO4)2-       0.000e+00   0.000e+00   -54.434   -54.434    -0.000     (0)  
   Fe3(OH)4+5      0.000e+00   0.000e+00   -62.130   -62.134    -0.004     (0)  
H(0)          4.130e-09
   H2              2.065e-09   2.065e-09    -8.685    -8.685     0.000     (0)  
O(0)          0.000e+00
   O2              0.000e+00   0.000e+00   -75.010   -75.010     0.000     (0)  
S(-2)         7.000e-12
   HS-             3.680e-12   3.678e-12   -11.434   -11.434    -0.000     (0)  
   H2S             3.223e-12   3.223e-12   -11.492   -11.492     0.000     (0)  
   S5-2            9.340e-15   9.327e-15   -14.030   -14.030    -0.001     (0)  
   S4-2            5.450e-15   5.442e-15   -14.264   -14.264    -0.001     (0)  
   S6-2            4.835e-15   4.827e-15   -14.316   -14.316    -0.001     (0)  
   S-2             4.440e-18   4.433e-18   -17.353   -17.353    -0.001     (0)  
   S3-2            1.920e-18   1.917e-18   -17.717   -17.717    -0.001     (0)  
   S2-2            1.090e-19   1.088e-19   -18.963   -18.963    -0.001     (0)  
   Fe(HS)2         2.520e-25   2.520e-25   -24.599   -24.599     0.000     (0)  
   Fe(HS)3-        1.010e-34   1.010e-34   -33.996   -33.996    -0.000     (0)  
S(6)          1.110e-16
   SO4-2           1.110e-16   1.109e-16   -15.955   -15.955    -0.001     (0)  
   HSO4-           1.079e-21   1.078e-21   -20.967   -20.967    -0.000     (0)  
   FeSO4           4.121e-25   4.121e-25   -24.385   -24.385     0.000     (0)  
   FeSO4+          1.051e-40   1.051e-40   -39.978   -39.979    -0.000     (0)  
   Fe(SO4)2-       0.000e+00   0.000e+00   -54.434   -54.434    -0.000     (0)  

------------------------------Saturation indices-------------------------------

  Phase               SI** log IAP   log K(298 K,   1 atm)

  Fe2(SO4)3      -107.33   -103.75    3.58  Fe2(SO4)3
  Fe3(OH)8        -30.80    -10.57   20.22  Fe3(OH)8
  Ferrihydrite    -11.84     -6.95    4.89  Fe(OH)3
  FeS(ppt)        -11.20    -15.12   -3.92  FeS
  Goethite         -7.45     -6.95    0.50  FeOOH
  Greigite        -43.36    -56.54  -13.18  Fe3S4
  Hematite         -9.88    -13.89   -4.01  Fe2O3
  Jarosite-H      -68.65    -80.75  -12.10  (H3O)Fe3(SO4)2(OH)6
  Lepidocrocite    -8.32     -6.95    1.37  FeOOH
  Mackinawite     -13.02     -8.17    4.85  FeS
  Maghemite       -20.28    -13.89    6.39  Fe2O3
  Magnetite       -14.31    -10.57    3.74  Fe3O4
  Melanterite     -24.16    -26.63   -2.47  FeSO4:7H2O
  O2(g)           -72.05     11.07   83.12  O2
  pe_fix            4.23      4.23    0.00  e-
  pH_fix           -7.00     -7.00    0.00  H+
  Pyrite          -11.26    -40.19  -28.93  FeS2
  Pyrrhotite      -11.92     -8.17    3.74  FeS
  Sulfur          -10.79    -12.90   -2.11  S

**For a gas, SI = log10(fugacity). Fugacity = pressure * phi / 1 atm.
  For ideal gases, phi = 1.

Reaction step 8.

Using solution 1.	PURE WATER
Using pure phase assemblage 1.	
Using reaction 1.	

Reaction 1.	

	  1.000e-12 moles of the following reaction have been added:

	                 Relative
	Reactant            moles

	Fe3S1                1.00000

	                 Relative
	Element             moles
	Fe                   3.00000
	S                    1.00000

-------------------------------Phase assemblage--------------------------------

                                                      Moles in assemblage
Phase               SI  log IAP  log K(T, P)   Initial       Final       Delta

Greigite        -42.96   -56.14    -13.18    0.000e+00           0   0.000e+00
Mackinawite     -12.91    -8.06      4.85    0.000e+00           0   0.000e+00
Pyrite          -11.09   -40.02    -28.93    0.000e+00           0   0.000e+00
Pyrrhotite      -11.80    -8.06      3.74    0.000e+00           0   0.000e+00

-----------------------------Solution composition------------------------------

	Elements           Molality       Moles

	Fe                2.400e-11   2.400e-11
	S                 8.000e-12   8.000e-12

----------------------------Description of solution----------------------------

                                       pH  =   6.999      Charge balance
                                       pe  =  -4.232      Adjusted to redox equilibrium
                        Activity of water  =   1.000
                 Ionic strength (mol/kgw)  =   1.003e-07
                       Mass of water (kg)  =   1.000e+00
                 Total alkalinity (eq/kg)  =   4.800e-11
                         Temperature (°C)  =  25.00
                  Electrical balance (eq)  =  -4.277e-16
 Percent error, 100*(Cat-|An|)/(Cat+|An|)  =  -0.00
                               Iterations  =   3
                                  Total H  = 1.110124e+02
                                  Total O  = 5.550622e+01

----------------------------Distribution of species----------------------------

                                               Log       Log       Log    mole V
   Species          Molality    Activity  Molality  Activity     Gamma    cm³/mol

   OH-             1.003e-07   1.003e-07    -6.999    -6.999    -0.000     (0)  
   H+              1.002e-07   1.002e-07    -6.999    -6.999    -0.000      0.00
   H2O             5.551e+01   1.000e+00     1.744    -0.000     0.000     18.07
Fe(2)         2.400e-11
   Fe+2            2.392e-11   2.389e-11   -10.621   -10.622    -0.001     (0)  
   FeOH+           7.541e-14   7.539e-14   -13.123   -13.123    -0.000     (0)  
   Fe(OH)2         6.403e-18   6.403e-18   -17.194   -17.194     0.000     (0)  
   Fe(OH)3-        2.375e-21   2.374e-21   -20.624   -20.625    -0.000     (0)  
   FeSO4           5.362e-25   5.362e-25   -24.271   -24.271     0.000     (0)  
   Fe(HS)2         3.762e-25   3.762e-25   -24.425   -24.425     0.000     (0)  
   Fe(HS)3-        1.723e-34   1.722e-34   -33.764   -33.764    -0.000     (0)  
Fe(3)         3.130e-20
   Fe(OH)2+        2.772e-20   2.771e-20   -19.557   -19.557    -0.000     (0)  
   Fe(OH)3         3.249e-21   3.249e-21   -20.488   -20.488     0.000     (0)  
   Fe(OH)4-        3.243e-22   3.242e-22   -21.489   -21.489    -0.000     (0)  
   FeOH+2          8.397e-24   8.385e-24   -23.076   -23.076    -0.001     (0)  
   Fe+3            1.306e-28   1.301e-28   -27.884   -27.886    -0.001     (0)  
   FeSO4+          1.367e-40   1.366e-40   -39.864   -39.864    -0.000     (0)  
   Fe2(OH)2+4      0.000e+00   0.000e+00   -44.720   -44.723    -0.003     (0)  
   Fe(SO4)2-       0.000e+00   0.000e+00   -54.263   -54.263    -0.000     (0)  
   Fe3(OH)4+5      0.000e+00   0.000e+00   -61.956   -61.960    -0.004     (0)  
H(0)          4.135e-09
   H2              2.067e-09   2.067e-09    -8.685    -8.685     0.000     (0)  
O(0)          0.000e+00
   O2              0.000e+00   0.000e+00   -75.011   -75.011     0.000     (0)  
S(-2)         8.000e-12
   HS-             4.205e-12   4.204e-12   -11.376   -11.376    -0.000     (0)  
   H2S             3.683e-12   3.683e-12   -11.434   -11.434     0.000     (0)  
   S5-2            1.068e-14   1.066e-14   -13.972   -13.972    -0.001     (0)  
   S4-2            6.228e-15   6.219e-15   -14.206   -14.206    -0.001     (0)  
   S6-2            5.526e-15   5.517e-15   -14.258   -14.258    -0.001     (0)  
   S-2             5.074e-18   5.067e-18   -17.295   -17.295    -0.001     (0)  
   S3-2            2.195e-18   2.191e-18   -17.659   -17.659    -0.001     (0)  
   S2-2            1.246e-19   1.244e-19   -18.905   -18.905    -0.001     (0)  
   Fe(HS)2         3.762e-25   3.762e-25   -24.425   -24.425     0.000     (0)  
   Fe(HS)3-        1.723e-34   1.722e-34   -33.764   -33.764    -0.000     (0)  
S(6)          1.264e-16
   SO4-2           1.264e-16   1.262e-16   -15.898   -15.899    -0.001     (0)  
   HSO4-           1.228e-21   1.227e-21   -20.911   -20.911    -0.000     (0)  
   FeSO4           5.362e-25   5.362e-25   -24.271   -24.271     0.000     (0)  
   FeSO4+          1.367e-40   1.366e-40   -39.864   -39.864    -0.000     (0)  
   Fe(SO4)2-       0.000e+00   0.000e+00   -54.263   -54.263    -0.000     (0)  

------------------------------Saturation indices-------------------------------

  Phase               SI** log IAP   log K(298 K,   1 atm)

  Fe2(SO4)3      -107.05   -103.47    3.58  Fe2(SO4)3
  Fe3(OH)8        -30.62    -10.40   20.22  Fe3(OH)8
  Ferrihydrite    -11.78     -6.89    4.89  Fe(OH)3
  FeS(ppt)        -11.08    -15.00   -3.92  FeS
  Goethite         -7.39     -6.89    0.50  FeOOH
  Greigite        -42.96    -56.14  -13.18  Fe3S4
  Hematite         -9.77    -13.78   -4.01  Fe2O3
  Jarosite-H      -68.36    -80.46  -12.10  (H3O)Fe3(SO4)2(OH)6
  Lepidocrocite    -8.26     -6.89    1.37  FeOOH
  Mackinawite     -12.91     -8.06    4.85  FeS
  Maghemite       -20.16    -13.78    6.39  Fe2O3
  Magnetite       -14.14    -10.40    3.74  Fe3O4
  Melanterite     -24.05    -26.52   -2.47  FeSO4:7H2O
  O2(g)           -72.05     11.07   83.12  O2
  pe_fix            4.23      4.23    0.00  e-
  pH_fix           -7.00     -7.00    0.00  H+
  Pyrite          -11.09    -40.02  -28.93  FeS2
  Pyrrhotite      -11.80     -8.06    3.74  FeS
  Sulfur          -10.73    -12.84   -2.11  S

**For a gas, SI = log10(fugacity). Fugacity = pressure * phi / 1 atm.
  For ideal gases, phi = 1.

Reaction step 9.

Using solution 1.	PURE WATER
Using pure phase assemblage 1.	
Using reaction 1.	

Reaction 1.	

	  1.000e-12 moles of the following reaction have been added:

	                 Relative
	Reactant            moles

	Fe3S1                1.00000

	                 Relative
	Element             moles
	Fe                   3.00000
	S                    1.00000

-------------------------------Phase assemblage--------------------------------

                                                      Moles in assemblage
Phase               SI  log IAP  log K(T, P)   Initial       Final       Delta

Greigite        -42.60   -55.78    -13.18    0.000e+00           0   0.000e+00
Mackinawite     -12.81    -7.96      4.85    0.000e+00           0   0.000e+00
Pyrite          -10.93   -39.87    -28.93    0.000e+00           0   0.000e+00
Pyrrhotite      -11.70    -7.96      3.74    0.000e+00           0   0.000e+00

-----------------------------Solution composition------------------------------

	Elements           Molality       Moles

	Fe                2.700e-11   2.700e-11
	S                 9.000e-12   9.000e-12

----------------------------Description of solution----------------------------

                                       pH  =   6.999      Charge balance
                                       pe  =  -4.232      Adjusted to redox equilibrium
                        Activity of water  =   1.000
                 Ionic strength (mol/kgw)  =   1.003e-07
                       Mass of water (kg)  =   1.000e+00
                 Total alkalinity (eq/kg)  =   5.400e-11
                         Temperature (°C)  =  25.00
                  Electrical balance (eq)  =  -4.277e-16
 Percent error, 100*(Cat-|An|)/(Cat+|An|)  =  -0.00
                               Iterations  =   3
                                  Total H  = 1.110124e+02
                                  Total O  = 5.550622e+01

----------------------------Distribution of species----------------------------

                                               Log       Log       Log    mole V
   Species          Molality    Activity  Molality  Activity     Gamma    cm³/mol

   OH-             1.003e-07   1.003e-07    -6.999    -6.999    -0.000     (0)  
   H+              1.002e-07   1.002e-07    -6.999    -6.999    -0.000      0.00
   H2O             5.551e+01   1.000e+00     1.744    -0.000     0.000     18.07
Fe(2)         2.700e-11
   Fe+2            2.692e-11   2.688e-11   -10.570   -10.571    -0.001     (0)  
   FeOH+           8.484e-14   8.481e-14   -13.071   -13.072    -0.000     (0)  
   Fe(OH)2         7.204e-18   7.204e-18   -17.142   -17.142     0.000     (0)  
   Fe(OH)3-        2.672e-21   2.671e-21   -20.573   -20.573    -0.000     (0)  
   FeSO4           6.760e-25   6.760e-25   -24.170   -24.170     0.000     (0)  
   Fe(HS)2         5.357e-25   5.357e-25   -24.271   -24.271     0.000     (0)  
   Fe(HS)3-        2.760e-34   2.759e-34   -33.559   -33.559    -0.000     (0)  
Fe(3)         3.520e-20
   Fe(OH)2+        3.117e-20   3.116e-20   -19.506   -19.506    -0.000     (0)  
   Fe(OH)3         3.653e-21   3.653e-21   -20.437   -20.437     0.000     (0)  
   Fe(OH)4-        3.647e-22   3.646e-22   -21.438   -21.438    -0.000     (0)  
   FeOH+2          9.443e-24   9.428e-24   -23.025   -23.026    -0.001     (0)  
   Fe+3            1.468e-28   1.463e-28   -27.833   -27.835    -0.001     (0)  
   FeSO4+          1.722e-40   1.722e-40   -39.764   -39.764    -0.000     (0)  
   Fe2(OH)2+4      0.000e+00   0.000e+00   -44.619   -44.621    -0.003     (0)  
   Fe(SO4)2-       0.000e+00   0.000e+00   -54.113   -54.113    -0.000     (0)  
   Fe3(OH)4+5      0.000e+00   0.000e+00   -61.804   -61.808    -0.004     (0)  
H(0)          4.139e-09
   H2              2.069e-09   2.069e-09    -8.684    -8.684     0.000     (0)  
O(0)          0.000e+00
   O2              0.000e+00   0.000e+00   -75.012   -75.012     0.000     (0)  
S(-2)         9.000e-12
   HS-             4.731e-12   4.729e-12   -11.325   -11.325    -0.000     (0)  
   H2S             4.143e-12   4.143e-12   -11.383   -11.383     0.000     (0)  
   S5-2            1.201e-14   1.199e-14   -13.920   -13.921    -0.001     (0)  
   S4-2            7.007e-15   6.997e-15   -14.154   -14.155    -0.001     (0)  
   S6-2            6.216e-15   6.207e-15   -14.206   -14.207    -0.001     (0)  
   S-2             5.709e-18   5.700e-18   -17.243   -17.244    -0.001     (0)  
   S3-2            2.469e-18   2.465e-18   -17.607   -17.608    -0.001     (0)  
   S2-2            1.401e-19   1.399e-19   -18.853   -18.854    -0.001     (0)  
   Fe(HS)2         5.357e-25   5.357e-25   -24.271   -24.271     0.000     (0)  
   Fe(HS)3-        2.760e-34   2.759e-34   -33.559   -33.559    -0.000     (0)  
S(6)          1.417e-16
   SO4-2           1.417e-16   1.415e-16   -15.849   -15.849    -0.001     (0)  
   HSO4-           1.376e-21   1.375e-21   -20.861   -20.862    -0.000     (0)  
   FeSO4           6.760e-25   6.760e-25   -24.170   -24.170     0.000     (0)  
   FeSO4+          1.722e-40   1.722e-40   -39.764   -39.764    -0.000     (0)  
   Fe(SO4)2-       0.000e+00   0.000e+00   -54.113   -54.113    -0.000     (0)  

------------------------------Saturation indices-------------------------------

  Phase               SI** log IAP   log K(298 K,   1 atm)

  Fe2(SO4)3      -106.80   -103.22    3.58  Fe2(SO4)3
  Fe3(OH)8        -30.47    -10.25   20.22  Fe3(OH)8
  Ferrihydrite    -11.73     -6.84    4.89  Fe(OH)3
  FeS(ppt)        -10.98    -14.90   -3.92  FeS
  Goethite         -7.34     -6.84    0.50  FeOOH
  Greigite        -42.60    -55.78  -13.18  Fe3S4
  Hematite         -9.67    -13.67   -4.01  Fe2O3
  Jarosite-H      -68.11    -80.21  -12.10  (H3O)Fe3(SO4)2(OH)6
  Lepidocrocite    -8.21     -6.84    1.37  FeOOH
  Mackinawite     -12.81     -7.96    4.85  FeS
  Maghemite       -20.06    -13.67    6.39  Fe2O3
  Magnetite       -13.98    -10.25    3.74  Fe3O4
  Melanterite     -23.95    -26.42   -2.47  FeSO4:7H2O
  O2(g)           -72.05     11.07   83.12  O2
  pe_fix            4.23      4.23    0.00  e-
  pH_fix           -7.00     -7.00    0.00  H+
  Pyrite          -10.93    -39.87  -28.93  FeS2
  Pyrrhotite      -11.70     -7.96    3.74  FeS
  Sulfur          -10.68    -12.79   -2.11  S

**For a gas, SI = log10(fugacity). Fugacity = pressure * phi / 1 atm.
  For ideal gases, phi = 1.

Reaction step 10.

Using solution 1.	PURE WATER
Using pure phase assemblage 1.	
Using reaction 1.	

Reaction 1.	

	  1.000e-12 moles of the following reaction have been added:

	                 Relative
	Reactant            moles

	Fe3S1                1.00000

	                 Relative
	Element             moles
	Fe                   3.00000
	S                    1.00000

-------------------------------Phase assemblage--------------------------------

                                                      Moles in assemblage
Phase               SI  log IAP  log K(T, P)   Initial       Final       Delta

Greigite        -42.28   -55.46    -13.18    0.000e+00           0   0.000e+00
Mackinawite     -12.71    -7.86      4.85    0.000e+00           0   0.000e+00
Pyrite          -10.80   -39.73    -28.93    0.000e+00           0   0.000e+00
Pyrrhotite      -11.61    -7.86      3.74    0.000e+00           0   0.000e+00

-----------------------------Solution composition------------------------------

	Elements           Molality       Moles

	Fe                3.000e-11   3.000e-11
	S                 1.000e-11   1.000e-11

----------------------------Description of solution----------------------------

                                       pH  =   6.999      Charge balance
                                       pe  =  -4.232      Adjusted to redox equilibrium
                        Activity of water  =   1.000
                 Ionic strength (mol/kgw)  =   1.003e-07
                       Mass of water (kg)  =   1.000e+00
                 Total alkalinity (eq/kg)  =   6.000e-11
                         Temperature (°C)  =  25.00
                  Electrical balance (eq)  =  -4.277e-16
 Percent error, 100*(Cat-|An|)/(Cat+|An|)  =  -0.00
                               Iterations  =   3
                                  Total H  = 1.110124e+02
                                  Total O  = 5.550622e+01

----------------------------Distribution of species----------------------------

                                               Log       Log       Log    mole V
   Species          Molality    Activity  Molality  Activity     Gamma    cm³/mol

   OH-             1.003e-07   1.003e-07    -6.999    -6.999    -0.000     (0)  
   H+              1.002e-07   1.002e-07    -6.999    -6.999    -0.000      0.00
   H2O             5.551e+01   1.000e+00     1.744    -0.000     0.000     18.07
Fe(2)         3.000e-11
   Fe+2            2.991e-11   2.986e-11   -10.524   -10.525    -0.001     (0)  
   FeOH+           9.427e-14   9.424e-14   -13.026   -13.026    -0.000     (0)  
   Fe(OH)2         8.005e-18   8.005e-18   -17.097   -17.097     0.000     (0)  
   Fe(OH)3-        2.969e-21   2.968e-21   -20.527   -20.528    -0.000     (0)  
   FeSO4           8.314e-25   8.314e-25   -24.080   -24.080     0.000     (0)  
   Fe(HS)2         7.349e-25   7.349e-25   -24.134   -24.134     0.000     (0)  
   Fe(HS)3-        4.207e-34   4.205e-34   -33.376   -33.376    -0.000     (0)  
Fe(3)         3.909e-20
   Fe(OH)2+        3.462e-20   3.460e-20   -19.461   -19.461    -0.000     (0)  
   Fe(OH)3         4.057e-21   4.057e-21   -20.392   -20.392     0.000     (0)  
   Fe(OH)4-        4.050e-22   4.049e-22   -21.392   -21.393    -0.000     (0)  
   FeOH+2          1.049e-23   1.047e-23   -22.979   -22.980    -0.001     (0)  
   Fe+3            1.631e-28   1.625e-28   -27.788   -27.789    -0.001     (0)  
   FeSO4+          2.117e-40   2.116e-40   -39.674   -39.674    -0.000     (0)  
   Fe2(OH)2+4      0.000e+00   0.000e+00   -44.527   -44.530    -0.003     (0)  
   Fe(SO4)2-       0.000e+00   0.000e+00   -53.980   -53.980    -0.000     (0)  
   Fe3(OH)4+5      0.000e+00   0.000e+00   -61.667   -61.671    -0.004     (0)  
H(0)          4.143e-09
   H2              2.071e-09   2.071e-09    -8.684    -8.684     0.000     (0)  
O(0)          0.000e+00
   O2              0.000e+00   0.000e+00   -75.012   -75.012     0.000     (0)  
S(-2)         1.000e-11
   HS-             5.257e-12   5.255e-12   -11.279   -11.279    -0.000     (0)  
   H2S             4.604e-12   4.604e-12   -11.337   -11.337     0.000     (0)  
   S5-2            1.334e-14   1.333e-14   -13.875   -13.875    -0.001     (0)  
   S4-2            7.786e-15   7.774e-15   -14.109   -14.109    -0.001     (0)  
   S6-2            6.907e-15   6.897e-15   -14.161   -14.161    -0.001     (0)  
   S-2             6.343e-18   6.334e-18   -17.198   -17.198    -0.001     (0)  
   S3-2            2.744e-18   2.740e-18   -17.562   -17.562    -0.001     (0)  
   S2-2            1.557e-19   1.555e-19   -18.808   -18.808    -0.001     (0)  
   Fe(HS)2         7.349e-25   7.349e-25   -24.134   -24.134     0.000     (0)  
   Fe(HS)3-        4.207e-34   4.205e-34   -33.376   -33.376    -0.000     (0)  
S(6)          1.568e-16
   SO4-2           1.568e-16   1.566e-16   -15.805   -15.805    -0.001     (0)  
   HSO4-           1.523e-21   1.522e-21   -20.817   -20.817    -0.000     (0)  
   FeSO4           8.314e-25   8.314e-25   -24.080   -24.080     0.000     (0)  
   FeSO4+          2.117e-40   2.116e-40   -39.674   -39.674    -0.000     (0)  
   Fe(SO4)2-       0.000e+00   0.000e+00   -53.980   -53.980    -0.000     (0)  

------------------------------Saturation indices-------------------------------

  Phase               SI** log IAP   log K(298 K,   1 atm)

  Fe2(SO4)3      -106.57   -102.99    3.58  Fe2(SO4)3
  Fe3(OH)8        -30.33    -10.11   20.22  Fe3(OH)8
  Ferrihydrite    -11.68     -6.79    4.89  Fe(OH)3
  FeS(ppt)        -10.89    -14.81   -3.92  FeS
  Goethite         -7.29     -6.79    0.50  FeOOH
  Greigite        -42.28    -55.46  -13.18  Fe3S4
  Hematite         -9.58    -13.58   -4.01  Fe2O3
  Jarosite-H      -67.88    -79.98  -12.10  (H3O)Fe3(SO4)2(OH)6
  Lepidocrocite    -8.16     -6.79    1.37  FeOOH
  Mackinawite     -12.71     -7.86    4.85  FeS
  Maghemite       -19.97    -13.58    6.39  Fe2O3
  Magnetite       -13.85    -10.11    3.74  Fe3O4
  Melanterite     -23.86    -26.33   -2.47  FeSO4:7H2O
  O2(g)           -72.05     11.07   83.12  O2
  pe_fix            4.23      4.23    0.00  e-
  pH_fix           -7.00     -7.00    0.00  H+
  Pyrite          -10.80    -39.73  -28.93  FeS2
  Pyrrhotite      -11.61     -7.86    3.74  FeS
  Sulfur          -10.63    -12.74   -2.11  S

**For a gas, SI = log10(fugacity). Fugacity = pressure * phi / 1 atm.
  For ideal gases, phi = 1.

Reaction step 11.

Using solution 1.	PURE WATER
Using pure phase assemblage 1.	
Using reaction 1.	

Reaction 1.	

	  1.000e-11 moles of the following reaction have been added:

	                 Relative
	Reactant            moles

	Fe3S1                1.00000

	                 Relative
	Element             moles
	Fe                   3.00000
	S                    1.00000

-------------------------------Phase assemblage--------------------------------

                                                      Moles in assemblage
Phase               SI  log IAP  log K(T, P)   Initial       Final       Delta

Greigite        -40.18   -53.35    -13.18    0.000e+00           0   0.000e+00
Mackinawite     -12.11    -7.26      4.85    0.000e+00           0   0.000e+00
Pyrite           -9.90   -38.83    -28.93    0.000e+00           0   0.000e+00
Pyrrhotite      -11.00    -7.26      3.74    0.000e+00           0   0.000e+00

-----------------------------Solution composition------------------------------

	Elements           Molality       Moles

	Fe                6.000e-11   6.000e-11
	S                 2.000e-11   2.000e-11

----------------------------Description of solution----------------------------

                                       pH  =   6.999      Charge balance
                                       pe  =  -4.234      Adjusted to redox equilibrium
                        Activity of water  =   1.000
                 Ionic strength (mol/kgw)  =   1.004e-07
                       Mass of water (kg)  =   1.000e+00
                 Total alkalinity (eq/kg)  =   1.200e-10
                         Temperature (°C)  =  25.00
                  Electrical balance (eq)  =  -4.277e-16
 Percent error, 100*(Cat-|An|)/(Cat+|An|)  =  -0.00
                               Iterations  =   5
                                  Total H  = 1.110124e+02
                                  Total O  = 5.550622e+01

----------------------------Distribution of species----------------------------

                                               Log       Log       Log    mole V
   Species          Molality    Activity  Molality  Activity     Gamma    cm³/mol

   OH-             1.003e-07   1.003e-07    -6.999    -6.999    -0.000     (0)  
   H+              1.002e-07   1.002e-07    -6.999    -6.999    -0.000      0.00
   H2O             5.551e+01   1.000e+00     1.744    -0.000     0.000     18.07
Fe(2)         6.000e-11
   Fe+2            5.981e-11   5.972e-11   -10.223   -10.224    -0.001     (0)  
   FeOH+           1.886e-13   1.885e-13   -12.724   -12.725    -0.000     (0)  
   Fe(OH)2         1.602e-17   1.602e-17   -16.795   -16.795     0.000     (0)  
   Fe(OH)3-        5.943e-21   5.941e-21   -20.226   -20.226    -0.000     (0)  
   Fe(HS)2         5.880e-24   5.880e-24   -23.231   -23.231     0.000     (0)  
   FeSO4           3.201e-24   3.201e-24   -23.495   -23.495     0.000     (0)  
   Fe(HS)3-        6.733e-33   6.731e-33   -32.172   -32.172    -0.000     (0)  
Fe(3)         7.782e-20
   Fe(OH)2+        6.892e-20   6.889e-20   -19.162   -19.162    -0.000     (0)  
   Fe(OH)3         8.080e-21   8.080e-21   -20.093   -20.093     0.000     (0)  
   Fe(OH)4-        8.068e-22   8.065e-22   -21.093   -21.093    -0.000     (0)  
   FeOH+2          2.087e-23   2.084e-23   -22.680   -22.681    -0.001     (0)  
   Fe+3            3.244e-28   3.234e-28   -27.489   -27.490    -0.001     (0)  
   FeSO4+          8.109e-40   8.106e-40   -39.091   -39.091    -0.000     (0)  
   Fe2(OH)2+4      0.000e+00   0.000e+00   -43.930   -43.932    -0.003     (0)  
   Fe(SO4)2-       0.000e+00   0.000e+00   -53.112   -53.112    -0.000     (0)  
   Fe3(OH)4+5      0.000e+00   0.000e+00   -60.770   -60.774    -0.004     (0)  
H(0)          4.183e-09
   H2              2.091e-09   2.091e-09    -8.680    -8.680     0.000     (0)  
O(0)          0.000e+00
   O2              0.000e+00   0.000e+00   -75.021   -75.021     0.000     (0)  
S(-2)         2.000e-11
   HS-             1.051e-11   1.051e-11   -10.978   -10.978    -0.000     (0)  
   H2S             9.206e-12   9.206e-12   -11.036   -11.036     0.000     (0)  
   S5-2            2.670e-14   2.666e-14   -13.573   -13.574    -0.001     (0)  
   S4-2            1.558e-14   1.556e-14   -13.807   -13.808    -0.001     (0)  
   S6-2            1.382e-14   1.380e-14   -13.859   -13.860    -0.001     (0)  
   S-2             1.269e-17   1.267e-17   -16.896   -16.897    -0.001     (0)  
   S3-2            5.489e-18   5.481e-18   -17.260   -17.261    -0.001     (0)  
   S2-2            3.115e-19   3.111e-19   -18.506   -18.507    -0.001     (0)  
   Fe(HS)2         5.880e-24   5.880e-24   -23.231   -23.231     0.000     (0)  
   Fe(HS)3-        6.733e-33   6.731e-33   -32.172   -32.172    -0.000     (0)  
S(6)          3.018e-16
   SO4-2           3.018e-16   3.014e-16   -15.520   -15.521    -0.001     (0)  
   HSO4-           2.931e-21   2.930e-21   -20.533   -20.533    -0.000     (0)  
   FeSO4           3.201e-24   3.201e-24   -23.495   -23.495     0.000     (0)  
   FeSO4+          8.109e-40   8.106e-40   -39.091   -39.091    -0.000     (0)  
   Fe(SO4)2-       0.000e+00   0.000e+00   -53.112   -53.112    -0.000     (0)  

------------------------------Saturation indices-------------------------------

  Phase               SI** log IAP   log K(298 K,   1 atm)

  Fe2(SO4)3      -105.12   -101.54    3.58  Fe2(SO4)3
  Fe3(OH)8        -29.43     -9.21   20.22  Fe3(OH)8
  Ferrihydrite    -11.38     -6.49    4.89  Fe(OH)3
  FeS(ppt)        -10.29    -14.20   -3.92  FeS
  Goethite         -6.99     -6.49    0.50  FeOOH
  Greigite        -40.18    -53.35  -13.18  Fe3S4
  Hematite         -8.98    -12.99   -4.01  Fe2O3
  Jarosite-H      -66.42    -78.52  -12.10  (H3O)Fe3(SO4)2(OH)6
  Lepidocrocite    -7.86     -6.49    1.37  FeOOH
  Mackinawite     -12.11     -7.26    4.85  FeS
  Maghemite       -19.37    -12.99    6.39  Fe2O3
  Magnetite       -12.95     -9.21    3.74  Fe3O4
  Melanterite     -23.27    -25.74   -2.47  FeSO4:7H2O
  O2(g)           -72.06     11.06   83.12  O2
  pe_fix            4.23      4.23    0.00  e-
  pH_fix           -7.00     -7.00    0.00  H+
  Pyrite           -9.90    -38.83  -28.93  FeS2
  Pyrrhotite      -11.00     -7.26    3.74  FeS
  Sulfur          -10.34    -12.45   -2.11  S

**For a gas, SI = log10(fugacity). Fugacity = pressure * phi / 1 atm.
  For ideal gases, phi = 1.

Reaction step 12.

Using solution 1.	PURE WATER
Using pure phase assemblage 1.	
Using reaction 1.	

Reaction 1.	

	  1.000e-11 moles of the following reaction have been added:

	                 Relative
	Reactant            moles

	Fe3S1                1.00000

	                 Relative
	Element             moles
	Fe                   3.00000
	S                    1.00000

-------------------------------Phase assemblage--------------------------------

                                                      Moles in assemblage
Phase               SI  log IAP  log K(T, P)   Initial       Final       Delta

Greigite        -38.95   -52.13    -13.18    0.000e+00           0   0.000e+00
Mackinawite     -11.76    -6.91      4.85    0.000e+00           0   0.000e+00
Pyrite           -9.37   -38.31    -28.93    0.000e+00           0   0.000e+00
Pyrrhotite      -10.65    -6.91      3.74    0.000e+00           0   0.000e+00

-----------------------------Solution composition------------------------------

	Elements           Molality       Moles

	Fe                9.000e-11   9.000e-11
	S                 3.000e-11   3.000e-11

----------------------------Description of solution----------------------------

                                       pH  =   6.999      Charge balance
                                       pe  =  -4.237      Adjusted to redox equilibrium
                        Activity of water  =   1.000
                 Ionic strength (mol/kgw)  =   1.005e-07
                       Mass of water (kg)  =   1.000e+00
                 Total alkalinity (eq/kg)  =   1.800e-10
[...]
  For ideal gases, phi = 1.

Reaction step 108.

Using solution 1.	PURE WATER
Using pure phase assemblage 1.	
Using reaction 1.	

Reaction 1.	

	  1.000e-02 moles of the following reaction have been added:

	                 Relative
	Reactant            moles

	Fe3S1                1.00000

	                 Relative
	Element             moles
	Fe                   3.00000
	S                    1.00000

-------------------------------Phase assemblage--------------------------------

                                                      Moles in assemblage
Phase               SI  log IAP  log K(T, P)   Initial       Final       Delta

Greigite        -12.92   -14.56     -1.63    0.000e+00           0   0.000e+00
Mackinawite      -1.11     3.74      4.85    0.000e+00           0   0.000e+00
Pyrite            7.14     0.00     -7.14    0.000e+00           0   0.000e+00
Pyrrhotite       -0.00     3.74      3.74    8.111e-02   9.111e-02   1.000e-02

-----------------------------Solution composition------------------------------

	Elements           Molality       Moles

	Fe                1.834e-01   1.822e-01
	S                 1.561e-09   1.551e-09

----------------------------Description of solution----------------------------

                                       pH  =  10.790      Charge balance
                                       pe  = -12.001      Adjusted to redox equilibrium
                        Activity of water  =   0.994
                 Ionic strength (mol/kgw)  =   8.842e-02
                       Mass of water (kg)  =   9.934e-01
                 Total alkalinity (eq/kg)  =   3.669e-01
                         Temperature (°C)  =  25.00
                  Electrical balance (eq)  =  -1.381e-11
 Percent error, 100*(Cat-|An|)/(Cat+|An|)  =  -0.00
                               Iterations  =   6
                                  Total H  = 1.110124e+02
                                  Total O  = 5.550622e+01

----------------------------Distribution of species----------------------------

                                               Log       Log       Log    mole V
   Species          Molality    Activity  Molality  Activity     Gamma    cm³/mol

   OH-             7.979e-04   6.151e-04    -3.098    -3.211    -0.113     (0)  
   H+              1.955e-11   1.623e-11   -10.709   -10.790    -0.081      0.00
   H2O             5.551e+01   9.937e-01     1.744    -0.003     0.000     18.07
Fe(2)         1.834e-01
   Fe(OH)3-        8.090e-02   6.398e-02    -1.092    -1.194    -0.102     (0)  
   FeOH+           6.824e-02   5.397e-02    -1.166    -1.268    -0.102     (0)  
   Fe(OH)2         2.756e-02   2.813e-02    -1.560    -1.551     0.009     (0)  
   Fe+2            6.725e-03   2.788e-03    -2.172    -2.555    -0.382     (0)  
   Fe(HS)2         3.287e-17   3.355e-17   -16.483   -16.474     0.009     (0)  
   Fe(HS)3-        1.703e-26   1.342e-26   -25.769   -25.872    -0.103     (0)  
   FeSO4           0.000e+00   0.000e+00   -44.319   -44.310     0.009     (0)  
Fe(3)         1.148e-06
   Fe(OH)4-        1.147e-06   9.123e-07    -5.941    -6.040    -0.099     (0)  
   Fe(OH)3         1.460e-09   1.490e-09    -8.836    -8.827     0.009     (0)  
   Fe(OH)2+        2.604e-12   2.072e-12   -11.584   -11.684    -0.099     (0)  
   FeOH+2          2.612e-19   1.022e-19   -18.583   -18.991    -0.408     (0)  
   Fe+3            1.377e-27   2.585e-28   -26.861   -27.588    -0.726     (0)  
   Fe2(OH)2+4      1.267e-35   2.810e-37   -34.897   -36.551    -1.654     (0)  
   Fe3(OH)4+5      0.000e+00   0.000e+00   -43.331   -45.915    -2.584     (0)  
   FeSO4+          0.000e+00   0.000e+00   -67.571   -67.673    -0.102     (0)  
   Fe(SO4)2-       0.000e+00   0.000e+00  -110.075  -110.178    -0.103     (0)  
H(0)          3.669e-01
   H2              1.834e-01   1.872e-01    -0.737    -0.728     0.009     (0)  
O(0)          0.000e+00
   O2              0.000e+00   0.000e+00   -90.939   -90.930     0.009     (0)  
S(-2)         1.561e-09
   S5-2            1.490e-10   5.752e-11    -9.827   -10.240    -0.413     (0)  
   S4-2            8.696e-11   3.356e-11   -10.061   -10.474    -0.413     (0)  
   S6-2            7.715e-11   2.977e-11   -10.113   -10.526    -0.413     (0)  
   HS-             4.767e-12   3.674e-12   -11.322   -11.435    -0.113     (0)  
   S-2             6.989e-14   2.734e-14   -13.156   -13.563    -0.408     (0)  
   S3-2            3.064e-14   1.183e-14   -13.514   -13.927    -0.413     (0)  
   S2-2            1.739e-15   6.712e-16   -14.760   -15.173    -0.413     (0)  
   H2S             5.109e-16   5.215e-16   -15.292   -15.283     0.009     (0)  
   Fe(HS)2         3.287e-17   3.355e-17   -16.483   -16.474     0.009     (0)  
   Fe(HS)3-        1.703e-26   1.342e-26   -25.769   -25.872    -0.103     (0)  
S(6)          0.000e+00
   SO4-2           0.000e+00   0.000e+00   -43.566   -44.005    -0.440     (0)  
   FeSO4           0.000e+00   0.000e+00   -44.319   -44.310     0.009     (0)  
   HSO4-           0.000e+00   0.000e+00   -52.703   -52.808    -0.105     (0)  
   FeSO4+          0.000e+00   0.000e+00   -67.571   -67.673    -0.102     (0)  
   Fe(SO4)2-       0.000e+00   0.000e+00  -110.075  -110.178    -0.103     (0)  

------------------------------Saturation indices-------------------------------

  Phase               SI** log IAP   log K(298 K,   1 atm)

  Fe2(SO4)3      -190.77   -187.19    3.58  Fe2(SO4)3
  Fe3(OH)8          8.34     28.57   20.22  Fe3(OH)8
  Ferrihydrite     -0.12      4.77    4.89  Fe(OH)3
  FeS(ppt)          0.72     -3.20   -3.92  FeS
  Goethite          4.28      4.78    0.50  FeOOH
  Greigite        -16.25    -31.10  -14.85  Fe3S4
  Hematite         13.56      9.55   -4.01  Fe2O3
  Jarosite-H     -104.74   -116.84  -12.10  (H3O)Fe3(SO4)2(OH)6
  Lepidocrocite     3.40      4.78    1.37  FeOOH
  Mackinawite      -1.11      3.74    4.85  FeS
  Maghemite         3.17      9.55    6.39  Fe2O3
  Magnetite        24.84     28.58    3.74  Fe3O4
  Melanterite     -44.11    -46.58   -2.47  FeSO4:7H2O
  O2(g)           -87.97     -4.85   83.12  O2
  pe_fix           12.00     12.00    0.00  e-
  pH_fix          -10.79    -10.79    0.00  H+
  Pyrite           -7.97    -24.70  -16.72  FeS2
  Pyrrhotite       -0.00      3.74    3.74  FeS
  Sulfur          -22.54    -24.65   -2.11  S

**For a gas, SI = log10(fugacity). Fugacity = pressure * phi / 1 atm.
  For ideal gases, phi = 1.

Reaction step 109.

Using solution 1.	PURE WATER
Using pure phase assemblage 1.	
Using reaction 1.	

Reaction 1.	

	  1.000e-02 moles of the following reaction have been added:

	                 Relative
	Reactant            moles

	Fe3S1                1.00000

	                 Relative
	Element             moles
	Fe                   3.00000
	S                    1.00000

-------------------------------Phase assemblage--------------------------------

                                                      Moles in assemblage
Phase               SI  log IAP  log K(T, P)   Initial       Final       Delta

Greigite        -13.01   -14.64     -1.63    0.000e+00           0   0.000e+00
Mackinawite      -1.11     3.74      4.85    0.000e+00           0   0.000e+00
Pyrite            7.14     0.00     -7.14    0.000e+00           0   0.000e+00
Pyrrhotite       -0.00     3.74      3.74    9.111e-02   1.011e-01   1.000e-02

-----------------------------Solution composition------------------------------

	Elements           Molality       Moles

	Fe                2.037e-01   2.022e-01
	S                 1.467e-09   1.457e-09

----------------------------Description of solution----------------------------

                                       pH  =  10.791      Charge balance
                                       pe  = -12.025      Adjusted to redox equilibrium
                        Activity of water  =   0.993
                 Ionic strength (mol/kgw)  =   9.852e-02
                       Mass of water (kg)  =   9.927e-01
                 Total alkalinity (eq/kg)  =   4.074e-01
                         Temperature (°C)  =  25.00
                  Electrical balance (eq)  =  -1.368e-11
 Percent error, 100*(Cat-|An|)/(Cat+|An|)  =  -0.00
                               Iterations  =   5
                                  Total H  = 1.110124e+02
                                  Total O  = 5.550622e+01

----------------------------Distribution of species----------------------------

                                               Log       Log       Log    mole V
   Species          Molality    Activity  Molality  Activity     Gamma    cm³/mol

   OH-             8.081e-04   6.164e-04    -3.093    -3.210    -0.118     (0)  
   H+              1.960e-11   1.619e-11   -10.708   -10.791    -0.083      0.00
   H2O             5.551e+01   9.931e-01     1.744    -0.003     0.000     18.07
Fe(2)         2.037e-01
   Fe(OH)3-        9.010e-02   7.065e-02    -1.045    -1.151    -0.106     (0)  
   FeOH+           7.570e-02   5.935e-02    -1.121    -1.227    -0.106     (0)  
   Fe(OH)2         3.030e-02   3.099e-02    -1.519    -1.509     0.010     (0)  
   Fe+2            7.607e-03   3.059e-03    -2.119    -2.514    -0.396     (0)  
   Fe(HS)2         2.972e-17   3.040e-17   -16.527   -16.517     0.010     (0)  
   Fe(HS)3-        1.413e-26   1.105e-26   -25.850   -25.957    -0.107     (0)  
   FeSO4           0.000e+00   0.000e+00   -44.507   -44.497     0.010     (0)  
Fe(3)         1.211e-06
   Fe(OH)4-        1.209e-06   9.542e-07    -5.918    -6.020    -0.103     (0)  
   Fe(OH)3         1.520e-09   1.555e-09    -8.818    -8.808     0.010     (0)  
   Fe(OH)2+        2.734e-12   2.158e-12   -11.563   -11.666    -0.103     (0)  
   FeOH+2          2.810e-19   1.062e-19   -18.551   -18.974    -0.423     (0)  
   Fe+3            1.498e-27   2.681e-28   -26.824   -27.572    -0.747     (0)  
   Fe2(OH)2+4      1.551e-35   3.036e-37   -34.809   -36.518    -1.708     (0)  
   Fe3(OH)4+5      0.000e+00   0.000e+00   -43.194   -45.864    -2.669     (0)  
   FeSO4+          0.000e+00   0.000e+00   -67.779   -67.885    -0.106     (0)  
   Fe(SO4)2-       0.000e+00   0.000e+00  -110.511  -110.618    -0.107     (0)  
H(0)          4.074e-01
   H2              2.037e-01   2.084e-01    -0.691    -0.681     0.010     (0)  
O(0)          0.000e+00
   O2              0.000e+00   0.000e+00   -91.034   -91.024     0.010     (0)  
S(-2)         1.467e-09
   S5-2            1.401e-10   5.242e-11    -9.853   -10.281    -0.427     (0)  
   S4-2            8.176e-11   3.058e-11   -10.087   -10.515    -0.427     (0)  
   S6-2            7.253e-11   2.713e-11   -10.139   -10.567    -0.427     (0)  
   HS-             4.378e-12   3.339e-12   -11.359   -11.476    -0.118     (0)  
   S-2             6.592e-14   2.492e-14   -13.181   -13.604    -0.423     (0)  
   S3-2            2.881e-14   1.078e-14   -13.540   -13.968    -0.427     (0)  
   S2-2            1.635e-15   6.116e-16   -14.786   -15.214    -0.427     (0)  
   H2S             4.619e-16   4.725e-16   -15.335   -15.326     0.010     (0)  
   Fe(HS)2         2.972e-17   3.040e-17   -16.527   -16.517     0.010     (0)  
   Fe(HS)3-        1.413e-26   1.105e-26   -25.850   -25.957    -0.107     (0)  
S(6)          0.000e+00
   SO4-2           0.000e+00   0.000e+00   -43.776   -44.233    -0.457     (0)  
   FeSO4           0.000e+00   0.000e+00   -44.507   -44.497     0.010     (0)  
   HSO4-           0.000e+00   0.000e+00   -52.928   -53.037    -0.109     (0)  
   FeSO4+          0.000e+00   0.000e+00   -67.779   -67.885    -0.106     (0)  
   Fe(SO4)2-       0.000e+00   0.000e+00  -110.511  -110.618    -0.107     (0)  

------------------------------Saturation indices-------------------------------

  Phase               SI** log IAP   log K(298 K,   1 atm)

  Fe2(SO4)3      -191.42   -187.84    3.58  Fe2(SO4)3
  Fe3(OH)8          8.42     28.64   20.22  Fe3(OH)8
  Ferrihydrite     -0.10      4.79    4.89  Fe(OH)3
  FeS(ppt)          0.72     -3.20   -3.92  FeS
  Goethite          4.29      4.79    0.50  FeOOH
  Greigite        -16.34    -31.19  -14.85  Fe3S4
  Hematite         13.60      9.59   -4.01  Fe2O3
  Jarosite-H     -105.15   -117.25  -12.10  (H3O)Fe3(SO4)2(OH)6
  Lepidocrocite     3.42      4.79    1.37  FeOOH
  Mackinawite      -1.11      3.74    4.85  FeS
  Maghemite         3.21      9.59    6.39  Fe2O3
  Magnetite        24.92     28.66    3.74  Fe3O4
  Melanterite     -44.30    -46.77   -2.47  FeSO4:7H2O
  O2(g)           -88.06     -4.94   83.12  O2
  pe_fix           12.03     12.03    0.00  e-
  pH_fix          -10.79    -10.79    0.00  H+
  Pyrite           -8.06    -24.79  -16.72  FeS2
  Pyrrhotite       -0.00      3.74    3.74  FeS
  Sulfur          -22.63    -24.74   -2.11  S

**For a gas, SI = log10(fugacity). Fugacity = pressure * phi / 1 atm.
  For ideal gases, phi = 1.

Reaction step 110.

Using solution 1.	PURE WATER
Using pure phase assemblage 1.	
Using reaction 1.	

Reaction 1.	

	  1.000e-02 moles of the following reaction have been added:

	                 Relative
	Reactant            moles

	Fe3S1                1.00000

	                 Relative
	Element             moles
	Fe                   3.00000
	S                    1.00000

-------------------------------Phase assemblage--------------------------------

                                                      Moles in assemblage
Phase               SI  log IAP  log K(T, P)   Initial       Final       Delta

Greigite        -13.09   -14.73     -1.63    0.000e+00           0   0.000e+00
Mackinawite      -1.11     3.74      4.85    0.000e+00           0   0.000e+00
Pyrite            7.14     0.00     -7.14    0.000e+00           0   0.000e+00
Pyrrhotite        0.00     3.74      3.74    1.011e-01   1.111e-01   1.000e-02

-----------------------------Solution composition------------------------------

	Elements           Molality       Moles

	Fe                2.240e-01   2.222e-01
	S                 1.387e-09   1.376e-09

----------------------------Description of solution----------------------------

                                       pH  =  10.792      Charge balance
                                       pe  = -12.048      Adjusted to redox equilibrium
                        Activity of water  =   0.992
                 Ionic strength (mol/kgw)  =   1.087e-01
                       Mass of water (kg)  =   9.920e-01
                 Total alkalinity (eq/kg)  =   4.480e-01
                         Temperature (°C)  =  25.00
                  Electrical balance (eq)  =  -1.368e-11
 Percent error, 100*(Cat-|An|)/(Cat+|An|)  =  -0.00
                               Iterations  =   6
                                  Total H  = 1.110124e+02
                                  Total O  = 5.550622e+01

----------------------------Distribution of species----------------------------

                                               Log       Log       Log    mole V
   Species          Molality    Activity  Molality  Activity     Gamma    cm³/mol

   OH-             8.177e-04   6.175e-04    -3.087    -3.209    -0.122     (0)  
   H+              1.964e-11   1.614e-11   -10.707   -10.792    -0.085      0.00
   H2O             5.551e+01   9.924e-01     1.744    -0.003     0.000     18.07
Fe(2)         2.240e-01
   Fe(OH)3-        9.935e-02   7.728e-02    -1.003    -1.112    -0.109     (0)  
   FeOH+           8.315e-02   6.468e-02    -1.080    -1.189    -0.109     (0)  
   Fe(OH)2         3.300e-02   3.384e-02    -1.481    -1.471     0.011     (0)  
   Fe+2            8.508e-03   3.328e-03    -2.070    -2.478    -0.408     (0)  
   Fe(HS)2         2.712e-17   2.780e-17   -16.567   -16.556     0.011     (0)  
   Fe(HS)3-        1.194e-26   9.269e-27   -25.923   -26.033    -0.110     (0)  
   FeSO4           0.000e+00   0.000e+00   -44.679   -44.668     0.011     (0)  
Fe(3)         1.270e-06
   Fe(OH)4-        1.268e-06   9.935e-07    -5.897    -6.003    -0.106     (0)  
   Fe(OH)3         1.576e-09   1.616e-09    -8.802    -8.791     0.011     (0)  
   Fe(OH)2+        2.858e-12   2.238e-12   -11.544   -11.650    -0.106     (0)  
   FeOH+2          3.003e-19   1.100e-19   -18.522   -18.959    -0.436     (0)  
   Fe+3            1.618e-27   2.771e-28   -26.791   -27.557    -0.766     (0)  
   Fe2(OH)2+4      1.861e-35   3.255e-37   -34.730   -36.487    -1.757     (0)  
   Fe3(OH)4+5      0.000e+00   0.000e+00   -43.072   -45.818    -2.746     (0)  
   FeSO4+          0.000e+00   0.000e+00   -67.968   -68.077    -0.109     (0)  
   Fe(SO4)2-       0.000e+00   0.000e+00  -110.907  -111.017    -0.110     (0)  
H(0)          4.480e-01
   H2              2.240e-01   2.297e-01    -0.650    -0.639     0.011     (0)  
O(0)          0.000e+00
   O2              0.000e+00   0.000e+00   -91.120   -91.109     0.011     (0)  
S(-2)         1.387e-09
   S5-2            1.325e-10   4.819e-11    -9.878   -10.317    -0.439     (0)  
   S4-2            7.731e-11   2.811e-11   -10.112   -10.551    -0.439     (0)  
   S6-2            6.858e-11   2.494e-11   -10.164   -10.603    -0.439     (0)  
   HS-             4.054e-12   3.062e-12   -11.392   -11.514    -0.122     (0)  
   S-2             6.255e-14   2.291e-14   -13.204   -13.640    -0.436     (0)  
   S3-2            2.724e-14   9.907e-15   -13.565   -14.004    -0.439     (0)  
   S2-2            1.546e-15   5.623e-16   -14.811   -15.250    -0.439     (0)  
   H2S             4.215e-16   4.322e-16   -15.375   -15.364     0.011     (0)  
   Fe(HS)2         2.712e-17   2.780e-17   -16.567   -16.556     0.011     (0)  
   Fe(HS)3-        1.194e-26   9.269e-27   -25.923   -26.033    -0.110     (0)  
S(6)          0.000e+00
   SO4-2           0.000e+00   0.000e+00   -43.966   -44.440    -0.474     (0)  
   FeSO4           0.000e+00   0.000e+00   -44.679   -44.668     0.011     (0)  
   HSO4-           0.000e+00   0.000e+00   -53.132   -53.245    -0.113     (0)  
   FeSO4+          0.000e+00   0.000e+00   -67.968   -68.077    -0.109     (0)  
   Fe(SO4)2-       0.000e+00   0.000e+00  -110.907  -111.017    -0.110     (0)  

------------------------------Saturation indices-------------------------------

  Phase               SI** log IAP   log K(298 K,   1 atm)

  Fe2(SO4)3      -192.01   -188.43    3.58  Fe2(SO4)3
  Fe3(OH)8          8.49     28.72   20.22  Fe3(OH)8
  Ferrihydrite     -0.08      4.81    4.89  Fe(OH)3
  FeS(ppt)          0.72     -3.20   -3.92  FeS
  Goethite          4.31      4.81    0.50  FeOOH
  Greigite        -16.42    -31.27  -14.85  Fe3S4
  Hematite         13.64      9.63   -4.01  Fe2O3
  Jarosite-H     -105.52   -117.62  -12.10  (H3O)Fe3(SO4)2(OH)6
  Lepidocrocite     3.44      4.81    1.37  FeOOH
  Mackinawite      -1.11      3.74    4.85  FeS
  Maghemite         3.24      9.63    6.39  Fe2O3
  Magnetite        24.99     28.73    3.74  Fe3O4
  Melanterite     -44.47    -46.94   -2.47  FeSO4:7H2O
  O2(g)           -88.15     -5.03   83.12  O2
  pe_fix           12.05     12.05    0.00  e-
  pH_fix          -10.79    -10.79    0.00  H+
  Pyrite           -8.15    -24.87  -16.72  FeS2
  Pyrrhotite        0.00      3.74    3.74  FeS
  Sulfur          -22.71    -24.82   -2.11  S

**For a gas, SI = log10(fugacity). Fugacity = pressure * phi / 1 atm.
  For ideal gases, phi = 1.

------------------
End of simulation.
------------------

------------------------------------
Reading input data for simulation 7.
------------------------------------

------------------------------
End of Run after 1.59 Seconds.
------------------------------

