   Input file: C:\Users\jt2020\OneDrive - Imperial College London\Data\Thermodynamics\Thermodynamics\Phreeq\Reaction Progress\All models with pyrrhotite\H2S\H2S unfixed conditions S dominant.pqi
  Output file: C:\Users\jt2020\OneDrive - Imperial College London\Data\Thermodynamics\Thermodynamics\Phreeq\Reaction Progress\All models with pyrrhotite\H2S\H2S unfixed conditions S dominant.pqo
Database file: C:\Users\jt2020\OneDrive - Imperial College London\Data\Thermodynamics\Thermodynamics\Phreeq\Reaction Progress\All models with pyrrhotite\Database\llnlpyrrminteq.dat

------------------
Reading data base.
------------------

	SOLUTION_MASTER_SPECIES
	SOLUTION_SPECIES
	SOLUTION_SPECIES
	PHASES
	SURFACE_MASTER_SPECIES
	SURFACE_SPECIES
	END
------------------------------------
Reading input data for simulation 1.
------------------------------------

	DATABASE C:\Users\jt2020\OneDrive - Imperial College London\Data\Thermodynamics\Thermodynamics\Phreeq\Reaction Progress\All models with pyrrhotite\Database\llnlpyrrminteq.dat
	TITLE  H2S S dominated 250mV
	SOLUTION 1  PURE WATER
	            pH    6 charge
	          temp   25.0
	           pe     -4.23       #-250 mV 
	PHASES
	       pH_fix
	                H + = H +
	                log_k = 0.0
	       pe_fix
	                e- = e-
	                log_k 0.0
	Mackinawite
	    FeS + 2H+ = Fe+2 + H2S
	    log_k     4.850
	    delta_h        -8.901 kcal
	Pyrrhotite
	    FeS + 2H+ = Fe+2 + H2S
	    log_k     3.74177
	    delta_h        -7.977 kcal
	Greigite
	    Fe3S4 + 8H+ = 2Fe+3 + Fe+2 + 4H2S
	    log_k     -13.17851821
	    delta_h        20.9195763 kcal
	Pyrite
	    FeS2 + 4H+ + Fe+2 = 2Fe+3 + 2H2S
	    log_k     -28.93469201
	    delta_h        20.7091683 kcal
	NaNO3
	    NaNO3 = Na+ + NO3-
	    log_K -20
	NaCl
	    NaCl = Cl- + Na+
	    log_k     -20
	END
-----
TITLE
-----

  H2S S dominated 250mV

-------------------------------------------
Beginning of initial solution calculations.
-------------------------------------------

Initial solution 1.	PURE WATER

-----------------------------Solution composition------------------------------

	Elements           Molality       Moles

	Pure water     

----------------------------Description of solution----------------------------

                                       pH  =   6.999      Charge balance
                                       pe  =  -4.230    
                        Activity of water  =   1.000
                 Ionic strength (mol/kgw)  =   1.003e-07
                       Mass of water (kg)  =   1.000e+00
                 Total alkalinity (eq/kg)  =   4.300e-16
                         Temperature (°C)  =  25.00
                  Electrical balance (eq)  =  -4.300e-16
 Percent error, 100*(Cat-|An|)/(Cat+|An|)  =  -0.00
                               Iterations  =   5
                                  Total H  = 1.110124e+02
                                  Total O  = 5.550622e+01

----------------------------Distribution of species----------------------------

                                               Log       Log       Log    mole V
   Species          Molality    Activity  Molality  Activity     Gamma    cm³/mol

   OH-             1.003e-07   1.002e-07    -6.999    -6.999    -0.000     (0)  
   H+              1.003e-07   1.002e-07    -6.999    -6.999    -0.000      0.00
   H2O             5.551e+01   1.000e+00     1.744    -0.000     0.000     18.07
H(0)          4.102e-09
   H2              2.051e-09   2.051e-09    -8.688    -8.688     0.000     (0)  
O(0)          0.000e+00
   O2              0.000e+00   0.000e+00   -75.004   -75.004     0.000     (0)  

------------------------------Saturation indices-------------------------------

  Phase               SI** log IAP   log K(298 K,   1 atm)

  O2(g)           -72.04     11.08   83.12  O2
  pe_fix            4.23      4.23    0.00  e-
  pH_fix           -7.00     -7.00    0.00  H+

**For a gas, SI = log10(fugacity). Fugacity = pressure * phi / 1 atm.
  For ideal gases, phi = 1.

------------------
End of simulation.
------------------

------------------------------------
Reading input data for simulation 2.
------------------------------------

	INCREMENTAL_REACTIONS
	REACTION
	Fe1S3 1
	10*1e-12 10*1e-11 10*1e-10 10*1e-9 10*1e-8 10*1e-7 10*1e-6 10*1e-5 10*1e-4  10*1e-3  10*1e-2 mol
	USE solution 1
	EQUILIBRIUM_PHASES 1
	        Mackinawite     0.0     0.0
	        Greigite        0.0     0.0
	        Pyrite          0.0     0.0 
	        Pyrrhotite      0.0     0.0
	USER_GRAPH 1 Simulation 6
	    -headings               Pyrite Greigite Mackinawite Pyrrhotite
	    -axis_titles            "Fe and S added, Log moles" "Mineral, moles"
	    -chart_title            "Sulfur dominant system with H2S as the oxidant"
	    -axis_scale sy_axis     auto auto auto auto log
	    -initial_solutions      false
	    -connect_simulations    false
	    -axis_scale y_axis      auto auto auto auto Log
	    -axis_scale sy_axis	    auto auto auto auto Log
	    -plot_concentration_vs  x
	  -start
	 5 PUT(GET(1) + RXN, 1)
	  20 PLOT_XY log10(GET(1)), EQUI("Pyrite") color = Green, line_w = 0,   	symbol = Plus, symbol_size = 5, y_axis = 2
	  30 PLOT_XY log10(GET(1)), EQUI("Greigite") color = Blue, line_w = 0,   	symbol = Plus, symbol_size = 5, y_axis = 2
	  40 PLOT_XY log10(GET(1)), EQUI("Mackinawite") color = Cyan, line_w = 0,   	symbol = Plus, symbol_size = 5, y_axis = 2
	  50 PLOT_XY log10(GET(1)), EQUI("Pyrrhotite") color = Red, line_w = 0,   	symbol = Plus, symbol_size = 5, y_axis = 2
	  -end
	    -active                 true
	SELECTED_OUTPUT
	    file                 H2S S dominated 250mV pH 6 unbuffered.csv
	    saturation_indices   Mackinawite  Greigite  Pyrite Pyrrhotite
	    reaction             
	    totals               Fe S
	    equilibrium_phases   Mackinawite  Greigite  Pyrite Pyrrhotite
	END
-----------------------------------------
Beginning of batch-reaction calculations.
-----------------------------------------

Reaction step 1.

Using solution 1.	PURE WATER
Using pure phase assemblage 1.	
Using reaction 1.	

Reaction 1.	

	  1.000e-12 moles of the following reaction have been added:

	                 Relative
	Reactant            moles

	Fe1S3                1.00000

	                 Relative
	Element             moles
	Fe                   1.00000
	S                    3.00000

-------------------------------Phase assemblage--------------------------------

                                                      Moles in assemblage
Phase               SI  log IAP  log K(T, P)   Initial       Final       Delta

Greigite        -48.80   -61.98    -13.18    0.000e+00           0   0.000e+00
Mackinawite     -14.71    -9.86      4.85    0.000e+00           0   0.000e+00
Pyrite          -13.31   -42.25    -28.93    0.000e+00           0   0.000e+00
Pyrrhotite      -13.61    -9.86      3.74    0.000e+00           0   0.000e+00

-----------------------------Solution composition------------------------------

	Elements           Molality       Moles

	Fe                1.000e-12   1.000e-12
	S                 3.000e-12   3.000e-12

----------------------------Description of solution----------------------------

                                       pH  =   6.999      Charge balance
                                       pe  =  -4.230      Adjusted to redox equilibrium
                        Activity of water  =   1.000
                 Ionic strength (mol/kgw)  =   1.003e-07
                       Mass of water (kg)  =   1.000e+00
                 Total alkalinity (eq/kg)  =   2.000e-12
                         Temperature (°C)  =  25.00
                  Electrical balance (eq)  =  -4.300e-16
 Percent error, 100*(Cat-|An|)/(Cat+|An|)  =  -0.00
                               Iterations  =   3
                                  Total H  = 1.110124e+02
                                  Total O  = 5.550622e+01

----------------------------Distribution of species----------------------------

                                               Log       Log       Log    mole V
   Species          Molality    Activity  Molality  Activity     Gamma    cm³/mol

   OH-             1.003e-07   1.002e-07    -6.999    -6.999    -0.000     (0)  
   H+              1.003e-07   1.002e-07    -6.999    -6.999    -0.000      0.00
   H2O             5.551e+01   1.000e+00     1.744    -0.000     0.000     18.07
Fe(2)         1.000e-12
   Fe+2            9.969e-13   9.954e-13   -12.001   -12.002    -0.001     (0)  
   FeOH+           3.142e-15   3.140e-15   -14.503   -14.503    -0.000     (0)  
   Fe(OH)2         2.667e-19   2.667e-19   -18.574   -18.574     0.000     (0)  
   Fe(OH)3-        9.889e-23   9.885e-23   -22.005   -22.005    -0.000     (0)  
   FeSO4           8.675e-27   8.675e-27   -26.062   -26.062     0.000     (0)  
   Fe(HS)2         2.204e-27   2.204e-27   -26.657   -26.657     0.000     (0)  
   Fe(HS)3-        3.785e-37   3.783e-37   -36.422   -36.422    -0.000     (0)  
Fe(3)         1.310e-21
   Fe(OH)2+        1.160e-21   1.159e-21   -20.936   -20.936    -0.000     (0)  
   Fe(OH)3         1.359e-22   1.359e-22   -21.867   -21.867     0.000     (0)  
   Fe(OH)4-        1.356e-23   1.356e-23   -22.868   -22.868    -0.000     (0)  
   FeOH+2          3.514e-25   3.509e-25   -24.454   -24.455    -0.001     (0)  
   Fe+3            5.466e-30   5.447e-30   -29.262   -29.264    -0.001     (0)  
   FeSO4+          0.000e+00   0.000e+00   -41.653   -41.654    -0.000     (0)  
   Fe2(OH)2+4      0.000e+00   0.000e+00   -47.477   -47.480    -0.003     (0)  
   Fe(SO4)2-       0.000e+00   0.000e+00   -56.463   -56.463    -0.000     (0)  
   Fe3(OH)4+5      0.000e+00   0.000e+00   -66.091   -66.095    -0.004     (0)  
H(0)          4.098e-09
   H2              2.049e-09   2.049e-09    -8.688    -8.688     0.000     (0)  
O(0)          0.000e+00
   O2              0.000e+00   0.000e+00   -75.003   -75.003     0.000     (0)  
S(-2)         3.000e-12
   HS-             1.577e-12   1.576e-12   -11.802   -11.802    -0.000     (0)  
   H2S             1.381e-12   1.381e-12   -11.860   -11.860     0.000     (0)  
   S5-2            4.002e-15   3.996e-15   -14.398   -14.398    -0.001     (0)  
   S4-2            2.335e-15   2.331e-15   -14.632   -14.632    -0.001     (0)  
   S6-2            2.071e-15   2.068e-15   -14.684   -14.684    -0.001     (0)  
   S-2             1.902e-18   1.899e-18   -17.721   -17.721    -0.001     (0)  
   S3-2            8.228e-19   8.215e-19   -18.085   -18.085    -0.001     (0)  
   S2-2            4.669e-20   4.663e-20   -19.331   -19.331    -0.001     (0)  
   Fe(HS)2         2.204e-27   2.204e-27   -26.657   -26.657     0.000     (0)  
   Fe(HS)3-        3.785e-37   3.783e-37   -36.422   -36.422    -0.000     (0)  
S(6)          4.908e-17
   SO4-2           4.908e-17   4.901e-17   -16.309   -16.310    -0.001     (0)  
   HSO4-           4.769e-22   4.767e-22   -21.322   -21.322    -0.000     (0)  
   FeSO4           8.675e-27   8.675e-27   -26.062   -26.062     0.000     (0)  
   FeSO4+          0.000e+00   0.000e+00   -41.653   -41.654    -0.000     (0)  
   Fe(SO4)2-       0.000e+00   0.000e+00   -56.463   -56.463    -0.000     (0)  

------------------------------Saturation indices-------------------------------

  Phase               SI** log IAP   log K(298 K,   1 atm)

  Fe2(SO4)3      -111.04   -107.46    3.58  Fe2(SO4)3
  Fe3(OH)8        -34.76    -14.54   20.22  Fe3(OH)8
  Ferrihydrite    -13.16     -8.27    4.89  Fe(OH)3
  FeS(ppt)        -12.89    -16.81   -3.92  FeS
  Goethite         -8.77     -8.27    0.50  FeOOH
  Greigite        -48.80    -61.98  -13.18  Fe3S4
  Hematite        -12.53    -16.53   -4.01  Fe2O3
  Jarosite-H      -73.32    -85.42  -12.10  (H3O)Fe3(SO4)2(OH)6
  Lepidocrocite    -9.64     -8.27    1.37  FeOOH
  Mackinawite     -14.71     -9.86    4.85  FeS
  Maghemite       -22.92    -16.53    6.39  Fe2O3
  Magnetite       -18.27    -14.54    3.74  Fe3O4
  Melanterite     -25.84    -28.31   -2.47  FeSO4:7H2O
  O2(g)           -72.04     11.08   83.12  O2
  pe_fix            4.23      4.23    0.00  e-
  pH_fix           -7.00     -7.00    0.00  H+
  Pyrite          -13.31    -42.25  -28.93  FeS2
  Pyrrhotite      -13.61     -9.86    3.74  FeS
  Sulfur          -11.15    -13.26   -2.11  S

**For a gas, SI = log10(fugacity). Fugacity = pressure * phi / 1 atm.
  For ideal gases, phi = 1.

Reaction step 2.

Using solution 1.	PURE WATER
Using pure phase assemblage 1.	
Using reaction 1.	

Reaction 1.	

	  1.000e-12 moles of the following reaction have been added:

	                 Relative
	Reactant            moles

	Fe1S3                1.00000

	                 Relative
	Element             moles
	Fe                   1.00000
	S                    3.00000

-------------------------------Phase assemblage--------------------------------

                                                      Moles in assemblage
Phase               SI  log IAP  log K(T, P)   Initial       Final       Delta

Greigite        -46.69   -59.87    -13.18    0.000e+00           0   0.000e+00
Mackinawite     -14.11    -9.26      4.85    0.000e+00           0   0.000e+00
Pyrite          -12.41   -41.35    -28.93    0.000e+00           0   0.000e+00
Pyrrhotite      -13.00    -9.26      3.74    0.000e+00           0   0.000e+00

-----------------------------Solution composition------------------------------

	Elements           Molality       Moles

	Fe                2.000e-12   2.000e-12
	S                 6.000e-12   6.000e-12

----------------------------Description of solution----------------------------

                                       pH  =   6.999      Charge balance
                                       pe  =  -4.230      Adjusted to redox equilibrium
                        Activity of water  =   1.000
                 Ionic strength (mol/kgw)  =   1.003e-07
                       Mass of water (kg)  =   1.000e+00
                 Total alkalinity (eq/kg)  =   4.000e-12
                         Temperature (°C)  =  25.00
                  Electrical balance (eq)  =  -4.300e-16
 Percent error, 100*(Cat-|An|)/(Cat+|An|)  =  -0.00
                               Iterations  =   5
                                  Total H  = 1.110124e+02
                                  Total O  = 5.550622e+01

----------------------------Distribution of species----------------------------

                                               Log       Log       Log    mole V
   Species          Molality    Activity  Molality  Activity     Gamma    cm³/mol

   OH-             1.003e-07   1.002e-07    -6.999    -6.999    -0.000     (0)  
   H+              1.003e-07   1.002e-07    -6.999    -6.999    -0.000      0.00
   H2O             5.551e+01   1.000e+00     1.744    -0.000     0.000     18.07
Fe(2)         2.000e-12
   Fe+2            1.994e-12   1.991e-12   -11.700   -11.701    -0.001     (0)  
   FeOH+           6.283e-15   6.281e-15   -14.202   -14.202    -0.000     (0)  
   Fe(OH)2         5.334e-19   5.334e-19   -18.273   -18.273     0.000     (0)  
   Fe(OH)3-        1.978e-22   1.977e-22   -21.704   -21.704    -0.000     (0)  
   FeSO4           3.483e-26   3.483e-26   -25.458   -25.458     0.000     (0)  
   Fe(HS)2         1.763e-26   1.763e-26   -25.754   -25.754     0.000     (0)  
   Fe(HS)3-        6.055e-36   6.053e-36   -35.218   -35.218    -0.000     (0)  
Fe(3)         2.620e-21
   Fe(OH)2+        2.321e-21   2.320e-21   -20.634   -20.635    -0.000     (0)  
   Fe(OH)3         2.719e-22   2.719e-22   -21.566   -21.566     0.000     (0)  
   Fe(OH)4-        2.714e-23   2.713e-23   -22.566   -22.567    -0.000     (0)  
   FeOH+2          7.032e-25   7.022e-25   -24.153   -24.154    -0.001     (0)  
   Fe+3            1.094e-29   1.090e-29   -28.961   -28.963    -0.001     (0)  
   FeSO4+          0.000e+00   0.000e+00   -41.049   -41.050    -0.000     (0)  
   Fe2(OH)2+4      0.000e+00   0.000e+00   -46.875   -46.877    -0.003     (0)  
   Fe(SO4)2-       0.000e+00   0.000e+00   -55.556   -55.557    -0.000     (0)  
   Fe3(OH)4+5      0.000e+00   0.000e+00   -65.188   -65.192    -0.004     (0)  
H(0)          4.094e-09
   H2              2.047e-09   2.047e-09    -8.689    -8.689     0.000     (0)  
O(0)          0.000e+00
   O2              0.000e+00   0.000e+00   -75.002   -75.002     0.000     (0)  
S(-2)         6.000e-12
   HS-             3.154e-12   3.152e-12   -11.501   -11.501    -0.000     (0)  
   H2S             2.763e-12   2.763e-12   -11.559   -11.559     0.000     (0)  
   S5-2            8.004e-15   7.992e-15   -14.097   -14.097    -0.001     (0)  
   S4-2            4.670e-15   4.663e-15   -14.331   -14.331    -0.001     (0)  
   S6-2            4.143e-15   4.137e-15   -14.383   -14.383    -0.001     (0)  
   S-2             3.805e-18   3.799e-18   -17.420   -17.420    -0.001     (0)  
   S3-2            1.646e-18   1.643e-18   -17.784   -17.784    -0.001     (0)  
   S2-2            9.339e-20   9.325e-20   -19.030   -19.030    -0.001     (0)  
   Fe(HS)2         1.763e-26   1.763e-26   -25.754   -25.754     0.000     (0)  
   Fe(HS)3-        6.055e-36   6.053e-36   -35.218   -35.218    -0.000     (0)  
S(6)          9.855e-17
   SO4-2           9.854e-17   9.840e-17   -16.006   -16.007    -0.001     (0)  
   HSO4-           9.574e-22   9.570e-22   -21.019   -21.019    -0.000     (0)  
   FeSO4           3.483e-26   3.483e-26   -25.458   -25.458     0.000     (0)  
   FeSO4+          0.000e+00   0.000e+00   -41.049   -41.050    -0.000     (0)  
   Fe(SO4)2-       0.000e+00   0.000e+00   -55.556   -55.557    -0.000     (0)  

------------------------------Saturation indices-------------------------------

  Phase               SI** log IAP   log K(298 K,   1 atm)

  Fe2(SO4)3      -109.53   -105.95    3.58  Fe2(SO4)3
  Fe3(OH)8        -33.86    -13.63   20.22  Fe3(OH)8
  Ferrihydrite    -12.86     -7.97    4.89  Fe(OH)3
  FeS(ppt)        -12.29    -16.20   -3.92  FeS
  Goethite         -8.47     -7.97    0.50  FeOOH
  Greigite        -46.69    -59.87  -13.18  Fe3S4
  Hematite        -11.92    -15.93   -4.01  Fe2O3
  Jarosite-H      -71.81    -83.91  -12.10  (H3O)Fe3(SO4)2(OH)6
  Lepidocrocite    -9.34     -7.97    1.37  FeOOH
  Mackinawite     -14.11     -9.26    4.85  FeS
  Maghemite       -22.32    -15.93    6.39  Fe2O3
  Magnetite       -17.37    -13.63    3.74  Fe3O4
  Melanterite     -25.24    -27.71   -2.47  FeSO4:7H2O
  O2(g)           -72.04     11.08   83.12  O2
  pe_fix            4.23      4.23    0.00  e-
  pH_fix           -7.00     -7.00    0.00  H+
  Pyrite          -12.41    -41.35  -28.93  FeS2
  Pyrrhotite      -13.00     -9.26    3.74  FeS
  Sulfur          -10.85    -12.96   -2.11  S

**For a gas, SI = log10(fugacity). Fugacity = pressure * phi / 1 atm.
  For ideal gases, phi = 1.

Reaction step 3.

Using solution 1.	PURE WATER
Using pure phase assemblage 1.	
Using reaction 1.	

Reaction 1.	

	  1.000e-12 moles of the following reaction have been added:

	                 Relative
	Reactant            moles

	Fe1S3                1.00000

	                 Relative
	Element             moles
	Fe                   1.00000
	S                    3.00000

-------------------------------Phase assemblage--------------------------------

                                                      Moles in assemblage
Phase               SI  log IAP  log K(T, P)   Initial       Final       Delta

Greigite        -45.46   -58.64    -13.18    0.000e+00           0   0.000e+00
Mackinawite     -13.76    -8.91      4.85    0.000e+00           0   0.000e+00
Pyrite          -11.88   -40.82    -28.93    0.000e+00           0   0.000e+00
Pyrrhotite      -12.65    -8.91      3.74    0.000e+00           0   0.000e+00

-----------------------------Solution composition------------------------------

	Elements           Molality       Moles

	Fe                3.000e-12   3.000e-12
	S                 9.000e-12   9.000e-12

----------------------------Description of solution----------------------------

                                       pH  =   6.999      Charge balance
                                       pe  =  -4.229      Adjusted to redox equilibrium
                        Activity of water  =   1.000
                 Ionic strength (mol/kgw)  =   1.003e-07
                       Mass of water (kg)  =   1.000e+00
                 Total alkalinity (eq/kg)  =   6.000e-12
                         Temperature (°C)  =  25.00
                  Electrical balance (eq)  =  -4.300e-16
 Percent error, 100*(Cat-|An|)/(Cat+|An|)  =  -0.00
                               Iterations  =   4
                                  Total H  = 1.110124e+02
                                  Total O  = 5.550622e+01

----------------------------Distribution of species----------------------------

                                               Log       Log       Log    mole V
   Species          Molality    Activity  Molality  Activity     Gamma    cm³/mol

   OH-             1.003e-07   1.002e-07    -6.999    -6.999    -0.000     (0)  
   H+              1.003e-07   1.002e-07    -6.999    -6.999    -0.000      0.00
   H2O             5.551e+01   1.000e+00     1.744    -0.000     0.000     18.07
Fe(2)         3.000e-12
   Fe+2            2.991e-12   2.986e-12   -11.524   -11.525    -0.001     (0)  
   FeOH+           9.425e-15   9.421e-15   -14.026   -14.026    -0.000     (0)  
   Fe(OH)2         8.000e-19   8.000e-19   -18.097   -18.097     0.000     (0)  
   Fe(OH)3-        2.967e-22   2.966e-22   -21.528   -21.528    -0.000     (0)  
   FeSO4           7.868e-26   7.868e-26   -25.104   -25.104     0.000     (0)  
   Fe(HS)2         5.951e-26   5.951e-26   -25.225   -25.225     0.000     (0)  
   Fe(HS)3-        3.066e-35   3.064e-35   -34.513   -34.514    -0.000     (0)  
Fe(3)         3.932e-21
   Fe(OH)2+        3.483e-21   3.481e-21   -20.458   -20.458    -0.000     (0)  
   Fe(OH)3         4.081e-22   4.081e-22   -21.389   -21.389     0.000     (0)  
   Fe(OH)4-        4.073e-23   4.071e-23   -22.390   -22.390    -0.000     (0)  
   FeOH+2          1.055e-24   1.054e-24   -23.977   -23.977    -0.001     (0)  
   Fe+3            1.641e-29   1.636e-29   -28.785   -28.786    -0.001     (0)  
   FeSO4+          0.000e+00   0.000e+00   -40.695   -40.696    -0.000     (0)  
   Fe2(OH)2+4      0.000e+00   0.000e+00   -46.522   -46.525    -0.003     (0)  
   Fe(SO4)2-       0.000e+00   0.000e+00   -55.025   -55.025    -0.000     (0)  
   Fe3(OH)4+5      0.000e+00   0.000e+00   -64.659   -64.663    -0.004     (0)  
H(0)          4.091e-09
   H2              2.045e-09   2.045e-09    -8.689    -8.689     0.000     (0)  
O(0)          0.000e+00
   O2              0.000e+00   0.000e+00   -75.002   -75.002     0.000     (0)  
S(-2)         9.000e-12
   HS-             4.730e-12   4.729e-12   -11.325   -11.325    -0.000     (0)  
   H2S             4.144e-12   4.144e-12   -11.383   -11.383     0.000     (0)  
   S5-2            1.201e-14   1.199e-14   -13.921   -13.921    -0.001     (0)  
   S4-2            7.005e-15   6.994e-15   -14.155   -14.155    -0.001     (0)  
   S6-2            6.214e-15   6.205e-15   -14.207   -14.207    -0.001     (0)  
   S-2             5.707e-18   5.698e-18   -17.244   -17.244    -0.001     (0)  
   S3-2            2.468e-18   2.465e-18   -17.608   -17.608    -0.001     (0)  
   S2-2            1.401e-19   1.399e-19   -18.854   -18.854    -0.001     (0)  
   Fe(HS)2         5.951e-26   5.951e-26   -25.225   -25.225     0.000     (0)  
   Fe(HS)3-        3.066e-35   3.064e-35   -34.513   -34.514    -0.000     (0)  
S(6)          1.484e-16
   SO4-2           1.484e-16   1.482e-16   -15.829   -15.829    -0.001     (0)  
   HSO4-           1.442e-21   1.441e-21   -20.841   -20.841    -0.000     (0)  
   FeSO4           7.868e-26   7.868e-26   -25.104   -25.104     0.000     (0)  
   FeSO4+          0.000e+00   0.000e+00   -40.695   -40.696    -0.000     (0)  
   Fe(SO4)2-       0.000e+00   0.000e+00   -55.025   -55.025    -0.000     (0)  

------------------------------Saturation indices-------------------------------

  Phase               SI** log IAP   log K(298 K,   1 atm)

  Fe2(SO4)3      -108.64   -105.06    3.58  Fe2(SO4)3
  Fe3(OH)8        -33.33    -13.11   20.22  Fe3(OH)8
  Ferrihydrite    -12.68     -7.79    4.89  Fe(OH)3
  FeS(ppt)        -11.94    -15.85   -3.92  FeS
  Goethite         -8.29     -7.79    0.50  FeOOH
  Greigite        -45.46    -58.64  -13.18  Fe3S4
  Hematite        -11.57    -15.58   -4.01  Fe2O3
  Jarosite-H      -70.92    -83.02  -12.10  (H3O)Fe3(SO4)2(OH)6
  Lepidocrocite    -9.16     -7.79    1.37  FeOOH
  Mackinawite     -13.76     -8.91    4.85  FeS
  Maghemite       -21.96    -15.58    6.39  Fe2O3
  Magnetite       -16.84    -13.11    3.74  Fe3O4
  Melanterite     -24.88    -27.35   -2.47  FeSO4:7H2O
  O2(g)           -72.04     11.08   83.12  O2
  pe_fix            4.23      4.23    0.00  e-
  pH_fix           -7.00     -7.00    0.00  H+
  Pyrite          -11.88    -40.82  -28.93  FeS2
  Pyrrhotite      -12.65     -8.91    3.74  FeS
  Sulfur          -10.68    -12.79   -2.11  S

**For a gas, SI = log10(fugacity). Fugacity = pressure * phi / 1 atm.
  For ideal gases, phi = 1.

Reaction step 4.

Using solution 1.	PURE WATER
Using pure phase assemblage 1.	
Using reaction 1.	

Reaction 1.	

	  1.000e-12 moles of the following reaction have been added:

	                 Relative
	Reactant            moles

	Fe1S3                1.00000

	                 Relative
	Element             moles
	Fe                   1.00000
	S                    3.00000

-------------------------------Phase assemblage--------------------------------

                                                      Moles in assemblage
Phase               SI  log IAP  log K(T, P)   Initial       Final       Delta

Greigite        -44.58   -57.76    -13.18    0.000e+00           0   0.000e+00
Mackinawite     -13.51    -8.66      4.85    0.000e+00           0   0.000e+00
Pyrite          -11.51   -40.44    -28.93    0.000e+00           0   0.000e+00
Pyrrhotite      -12.40    -8.66      3.74    0.000e+00           0   0.000e+00

-----------------------------Solution composition------------------------------

	Elements           Molality       Moles

	Fe                4.000e-12   4.000e-12
	S                 1.200e-11   1.200e-11

----------------------------Description of solution----------------------------

                                       pH  =   6.999      Charge balance
                                       pe  =  -4.229      Adjusted to redox equilibrium
                        Activity of water  =   1.000
                 Ionic strength (mol/kgw)  =   1.003e-07
                       Mass of water (kg)  =   1.000e+00
                 Total alkalinity (eq/kg)  =   8.000e-12
                         Temperature (°C)  =  25.00
                  Electrical balance (eq)  =  -4.300e-16
 Percent error, 100*(Cat-|An|)/(Cat+|An|)  =  -0.00
                               Iterations  =   4
                                  Total H  = 1.110124e+02
                                  Total O  = 5.550622e+01

----------------------------Distribution of species----------------------------

                                               Log       Log       Log    mole V
   Species          Molality    Activity  Molality  Activity     Gamma    cm³/mol

   OH-             1.003e-07   1.002e-07    -6.999    -6.999    -0.000     (0)  
   H+              1.003e-07   1.002e-07    -6.999    -6.999    -0.000      0.00
   H2O             5.551e+01   1.000e+00     1.744    -0.000     0.000     18.07
Fe(2)         4.000e-12
   Fe+2            3.987e-12   3.982e-12   -11.399   -11.400    -0.001     (0)  
   FeOH+           1.257e-14   1.256e-14   -13.901   -13.901    -0.000     (0)  
   Fe(OH)2         1.067e-18   1.067e-18   -17.972   -17.972     0.000     (0)  
   Fe(OH)3-        3.956e-22   3.954e-22   -21.403   -21.403    -0.000     (0)  
   Fe(HS)2         1.411e-25   1.411e-25   -24.851   -24.851     0.000     (0)  
   FeSO4           1.404e-25   1.404e-25   -24.853   -24.853     0.000     (0)  
   Fe(HS)3-        9.689e-35   9.685e-35   -34.014   -34.014    -0.000     (0)  
Fe(3)         5.246e-21
   Fe(OH)2+        4.646e-21   4.644e-21   -20.333   -20.333    -0.000     (0)  
   Fe(OH)3         5.444e-22   5.444e-22   -21.264   -21.264     0.000     (0)  
   Fe(OH)4-        5.433e-23   5.431e-23   -22.265   -22.265    -0.000     (0)  
   FeOH+2          1.408e-24   1.406e-24   -23.851   -23.852    -0.001     (0)  
   Fe+3            2.189e-29   2.182e-29   -28.660   -28.661    -0.001     (0)  
   FeSO4+          0.000e+00   0.000e+00   -40.444   -40.444    -0.000     (0)  
   Fe2(OH)2+4      0.000e+00   0.000e+00   -46.272   -46.274    -0.003     (0)  
   Fe(SO4)2-       0.000e+00   0.000e+00   -54.646   -54.646    -0.000     (0)  
   Fe3(OH)4+5      0.000e+00   0.000e+00   -64.283   -64.287    -0.004     (0)  
H(0)          4.087e-09
   H2              2.043e-09   2.043e-09    -8.690    -8.690     0.000     (0)  
O(0)          0.000e+00
   O2              0.000e+00   0.000e+00   -75.001   -75.001     0.000     (0)  
S(-2)         1.200e-11
   HS-             6.307e-12   6.305e-12   -11.200   -11.200    -0.000     (0)  
   H2S             5.525e-12   5.525e-12   -11.258   -11.258     0.000     (0)  
   S5-2            1.601e-14   1.598e-14   -13.796   -13.796    -0.001     (0)  
   S4-2            9.340e-15   9.326e-15   -14.030   -14.030    -0.001     (0)  
   S6-2            8.286e-15   8.273e-15   -14.082   -14.082    -0.001     (0)  
   S-2             7.609e-18   7.598e-18   -17.119   -17.119    -0.001     (0)  
   S3-2            3.291e-18   3.286e-18   -17.483   -17.483    -0.001     (0)  
   S2-2            1.868e-19   1.865e-19   -18.729   -18.729    -0.001     (0)  
   Fe(HS)2         1.411e-25   1.411e-25   -24.851   -24.851     0.000     (0)  
   Fe(HS)3-        9.689e-35   9.685e-35   -34.014   -34.014    -0.000     (0)  
S(6)          1.986e-16
   SO4-2           1.986e-16   1.983e-16   -15.702   -15.703    -0.001     (0)  
   HSO4-           1.930e-21   1.929e-21   -20.715   -20.715    -0.000     (0)  
   FeSO4           1.404e-25   1.404e-25   -24.853   -24.853     0.000     (0)  
   FeSO4+          0.000e+00   0.000e+00   -40.444   -40.444    -0.000     (0)  
   Fe(SO4)2-       0.000e+00   0.000e+00   -54.646   -54.646    -0.000     (0)  

------------------------------Saturation indices-------------------------------

  Phase               SI** log IAP   log K(298 K,   1 atm)

  Fe2(SO4)3      -108.01   -104.43    3.58  Fe2(SO4)3
  Fe3(OH)8        -32.95    -12.73   20.22  Fe3(OH)8
  Ferrihydrite    -12.56     -7.66    4.89  Fe(OH)3
  FeS(ppt)        -11.69    -15.60   -3.92  FeS
  Goethite         -8.16     -7.66    0.50  FeOOH
  Greigite        -44.58    -57.76  -13.18  Fe3S4
  Hematite        -11.32    -15.33   -4.01  Fe2O3
  Jarosite-H      -70.29    -82.39  -12.10  (H3O)Fe3(SO4)2(OH)6
  Lepidocrocite    -9.04     -7.66    1.37  FeOOH
  Mackinawite     -13.51     -8.66    4.85  FeS
  Maghemite       -21.71    -15.33    6.39  Fe2O3
  Magnetite       -16.47    -12.73    3.74  Fe3O4
  Melanterite     -24.63    -27.10   -2.47  FeSO4:7H2O
  O2(g)           -72.04     11.08   83.12  O2
  pe_fix            4.23      4.23    0.00  e-
  pH_fix           -7.00     -7.00    0.00  H+
  Pyrite          -11.51    -40.44  -28.93  FeS2
  Pyrrhotite      -12.40     -8.66    3.74  FeS
  Sulfur          -10.55    -12.66   -2.11  S

**For a gas, SI = log10(fugacity). Fugacity = pressure * phi / 1 atm.
  For ideal gases, phi = 1.

Reaction step 5.

Using solution 1.	PURE WATER
Using pure phase assemblage 1.	
Using reaction 1.	

Reaction 1.	

	  1.000e-12 moles of the following reaction have been added:

	                 Relative
	Reactant            moles

	Fe1S3                1.00000

	                 Relative
	Element             moles
	Fe                   1.00000
	S                    3.00000

-------------------------------Phase assemblage--------------------------------

                                                      Moles in assemblage
Phase               SI  log IAP  log K(T, P)   Initial       Final       Delta

Greigite        -43.90   -57.08    -13.18    0.000e+00           0   0.000e+00
Mackinawite     -13.32    -8.47      4.85    0.000e+00           0   0.000e+00
Pyrite          -11.22   -40.15    -28.93    0.000e+00           0   0.000e+00
Pyrrhotite      -12.21    -8.47      3.74    0.000e+00           0   0.000e+00

-----------------------------Solution composition------------------------------

	Elements           Molality       Moles

	Fe                5.000e-12   5.000e-12
	S                 1.500e-11   1.500e-11

----------------------------Description of solution----------------------------

                                       pH  =   6.999      Charge balance
                                       pe  =  -4.229      Adjusted to redox equilibrium
                        Activity of water  =   1.000
                 Ionic strength (mol/kgw)  =   1.003e-07
                       Mass of water (kg)  =   1.000e+00
                 Total alkalinity (eq/kg)  =   1.000e-11
                         Temperature (°C)  =  25.00
                  Electrical balance (eq)  =  -4.299e-16
 Percent error, 100*(Cat-|An|)/(Cat+|An|)  =  -0.00
                               Iterations  =   3
                                  Total H  = 1.110124e+02
                                  Total O  = 5.550622e+01

----------------------------Distribution of species----------------------------

                                               Log       Log       Log    mole V
   Species          Molality    Activity  Molality  Activity     Gamma    cm³/mol

   OH-             1.003e-07   1.002e-07    -6.999    -6.999    -0.000     (0)  
   H+              1.003e-07   1.002e-07    -6.999    -6.999    -0.000      0.00
   H2O             5.551e+01   1.000e+00     1.744    -0.000     0.000     18.07
Fe(2)         5.000e-12
   Fe+2            4.984e-12   4.977e-12   -11.302   -11.303    -0.001     (0)  
   FeOH+           1.571e-14   1.570e-14   -13.804   -13.804    -0.000     (0)  
   Fe(OH)2         1.333e-18   1.333e-18   -17.875   -17.875     0.000     (0)  
   Fe(OH)3-        4.945e-22   4.943e-22   -21.306   -21.306    -0.000     (0)  
   Fe(HS)2         2.755e-25   2.755e-25   -24.560   -24.560     0.000     (0)  
   FeSO4           2.202e-25   2.202e-25   -24.657   -24.657     0.000     (0)  
   Fe(HS)3-        2.365e-34   2.365e-34   -33.626   -33.626    -0.000     (0)  
Fe(3)         6.560e-21
   Fe(OH)2+        5.810e-21   5.808e-21   -20.236   -20.236    -0.000     (0)  
   Fe(OH)3         6.808e-22   6.808e-22   -21.167   -21.167     0.000     (0)  
   Fe(OH)4-        6.795e-23   6.792e-23   -22.168   -22.168    -0.000     (0)  
   FeOH+2          1.761e-24   1.758e-24   -23.754   -23.755    -0.001     (0)  
   Fe+3            2.738e-29   2.729e-29   -28.563   -28.564    -0.001     (0)  
   FeSO4+          0.000e+00   0.000e+00   -40.248   -40.248    -0.000     (0)  
   Fe2(OH)2+4      0.000e+00   0.000e+00   -46.077   -46.080    -0.003     (0)  
   Fe(SO4)2-       0.000e+00   0.000e+00   -54.352   -54.352    -0.000     (0)  
   Fe3(OH)4+5      0.000e+00   0.000e+00   -63.992   -63.996    -0.004     (0)  
H(0)          4.083e-09
   H2              2.041e-09   2.041e-09    -8.690    -8.690     0.000     (0)  
O(0)          0.000e+00
   O2              0.000e+00   0.000e+00   -75.000   -75.000     0.000     (0)  
S(-2)         1.500e-11
   HS-             7.884e-12   7.881e-12   -11.103   -11.103    -0.000     (0)  
   H2S             6.907e-12   6.907e-12   -11.161   -11.161     0.000     (0)  
   S5-2            2.001e-14   1.998e-14   -13.699   -13.699    -0.001     (0)  
   S4-2            1.167e-14   1.166e-14   -13.933   -13.933    -0.001     (0)  
   S6-2            1.036e-14   1.034e-14   -13.985   -13.985    -0.001     (0)  
   S-2             9.511e-18   9.497e-18   -17.022   -17.022    -0.001     (0)  
   S3-2            4.114e-18   4.108e-18   -17.386   -17.386    -0.001     (0)  
   S2-2            2.335e-19   2.331e-19   -18.632   -18.632    -0.001     (0)  
   Fe(HS)2         2.755e-25   2.755e-25   -24.560   -24.560     0.000     (0)  
   Fe(HS)3-        2.365e-34   2.365e-34   -33.626   -33.626    -0.000     (0)  
S(6)          2.492e-16
   SO4-2           2.492e-16   2.488e-16   -15.603   -15.604    -0.001     (0)  
   HSO4-           2.421e-21   2.420e-21   -20.616   -20.616    -0.000     (0)  
   FeSO4           2.202e-25   2.202e-25   -24.657   -24.657     0.000     (0)  
   FeSO4+          0.000e+00   0.000e+00   -40.248   -40.248    -0.000     (0)  
   Fe(SO4)2-       0.000e+00   0.000e+00   -54.352   -54.352    -0.000     (0)  

------------------------------Saturation indices-------------------------------

  Phase               SI** log IAP   log K(298 K,   1 atm)

  Fe2(SO4)3      -107.52   -103.94    3.58  Fe2(SO4)3
  Fe3(OH)8        -32.66    -12.44   20.22  Fe3(OH)8
  Ferrihydrite    -12.46     -7.57    4.89  Fe(OH)3
  FeS(ppt)        -11.49    -15.41   -3.92  FeS
  Goethite         -8.07     -7.57    0.50  FeOOH
  Greigite        -43.90    -57.08  -13.18  Fe3S4
  Hematite        -11.13    -15.13   -4.01  Fe2O3
  Jarosite-H      -69.81    -81.91  -12.10  (H3O)Fe3(SO4)2(OH)6
  Lepidocrocite    -8.94     -7.57    1.37  FeOOH
  Mackinawite     -13.32     -8.47    4.85  FeS
  Maghemite       -21.52    -15.13    6.39  Fe2O3
  Magnetite       -16.18    -12.44    3.74  Fe3O4
  Melanterite     -24.44    -26.91   -2.47  FeSO4:7H2O
  O2(g)           -72.04     11.08   83.12  O2
  pe_fix            4.23      4.23    0.00  e-
  pH_fix           -7.00     -7.00    0.00  H+
  Pyrite          -11.22    -40.15  -28.93  FeS2
  Pyrrhotite      -12.21     -8.47    3.74  FeS
  Sulfur          -10.45    -12.56   -2.11  S

**For a gas, SI = log10(fugacity). Fugacity = pressure * phi / 1 atm.
  For ideal gases, phi = 1.

Reaction step 6.

Using solution 1.	PURE WATER
Using pure phase assemblage 1.	
Using reaction 1.	

Reaction 1.	

	  1.000e-12 moles of the following reaction have been added:

	                 Relative
	Reactant            moles

	Fe1S3                1.00000

	                 Relative
	Element             moles
	Fe                   1.00000
	S                    3.00000

-------------------------------Phase assemblage--------------------------------

                                                      Moles in assemblage
Phase               SI  log IAP  log K(T, P)   Initial       Final       Delta

Greigite        -43.35   -56.53    -13.18    0.000e+00           0   0.000e+00
Mackinawite     -13.16    -8.31      4.85    0.000e+00           0   0.000e+00
Pyrite          -10.98   -39.91    -28.93    0.000e+00           0   0.000e+00
Pyrrhotite      -12.05    -8.31      3.74    0.000e+00           0   0.000e+00

-----------------------------Solution composition------------------------------

	Elements           Molality       Moles

	Fe                6.000e-12   6.000e-12
	S                 1.800e-11   1.800e-11

----------------------------Description of solution----------------------------

                                       pH  =   6.999      Charge balance
                                       pe  =  -4.229      Adjusted to redox equilibrium
                        Activity of water  =   1.000
                 Ionic strength (mol/kgw)  =   1.003e-07
                       Mass of water (kg)  =   1.000e+00
                 Total alkalinity (eq/kg)  =   1.200e-11
                         Temperature (°C)  =  25.00
                  Electrical balance (eq)  =  -4.299e-16
 Percent error, 100*(Cat-|An|)/(Cat+|An|)  =  -0.00
                               Iterations  =   3
                                  Total H  = 1.110124e+02
                                  Total O  = 5.550622e+01

----------------------------Distribution of species----------------------------

                                               Log       Log       Log    mole V
   Species          Molality    Activity  Molality  Activity     Gamma    cm³/mol

   OH-             1.003e-07   1.002e-07    -6.999    -6.999    -0.000     (0)  
   H+              1.003e-07   1.002e-07    -6.999    -6.999    -0.000      0.00
   H2O             5.551e+01   1.000e+00     1.744    -0.000     0.000     18.07
Fe(2)         6.000e-12
   Fe+2            5.981e-12   5.972e-12   -11.223   -11.224    -0.001     (0)  
   FeOH+           1.885e-14   1.884e-14   -13.725   -13.725    -0.000     (0)  
   Fe(OH)2         1.600e-18   1.600e-18   -17.796   -17.796     0.000     (0)  
   Fe(OH)3-        5.934e-22   5.931e-22   -21.227   -21.227    -0.000     (0)  
   Fe(HS)2         4.761e-25   4.761e-25   -24.322   -24.322     0.000     (0)  
   FeSO4           3.184e-25   3.184e-25   -24.497   -24.497     0.000     (0)  
   Fe(HS)3-        4.905e-34   4.903e-34   -33.309   -33.310    -0.000     (0)  
Fe(3)         7.876e-21
   Fe(OH)2+        6.975e-21   6.973e-21   -20.156   -20.157    -0.000     (0)  
   Fe(OH)3         8.173e-22   8.173e-22   -21.088   -21.088     0.000     (0)  
   Fe(OH)4-        8.158e-23   8.155e-23   -22.088   -22.089    -0.000     (0)  
   FeOH+2          2.114e-24   2.111e-24   -23.675   -23.676    -0.001     (0)  
   Fe+3            3.287e-29   3.276e-29   -28.483   -28.485    -0.001     (0)  
   FeSO4+          0.000e+00   0.000e+00   -40.088   -40.088    -0.000     (0)  
   Fe2(OH)2+4      0.000e+00   0.000e+00   -45.919   -45.921    -0.003     (0)  
   Fe(SO4)2-       0.000e+00   0.000e+00   -54.111   -54.111    -0.000     (0)  
   Fe3(OH)4+5      0.000e+00   0.000e+00   -63.754   -63.758    -0.004     (0)  
H(0)          4.079e-09
   H2              2.039e-09   2.039e-09    -8.691    -8.691     0.000     (0)  
O(0)          0.000e+00
   O2              0.000e+00   0.000e+00   -74.999   -74.999     0.000     (0)  
S(-2)         1.800e-11
   HS-             9.461e-12   9.457e-12   -11.024   -11.024    -0.000     (0)  
   H2S             8.288e-12   8.288e-12   -11.082   -11.082     0.000     (0)  
   S5-2            2.401e-14   2.398e-14   -13.620   -13.620    -0.001     (0)  
   S4-2            1.401e-14   1.399e-14   -13.854   -13.854    -0.001     (0)  
   S6-2            1.243e-14   1.241e-14   -13.906   -13.906    -0.001     (0)  
   S-2             1.141e-17   1.140e-17   -16.943   -16.943    -0.001     (0)  
   S3-2            4.937e-18   4.929e-18   -17.307   -17.307    -0.001     (0)  
   S2-2            2.802e-19   2.798e-19   -18.553   -18.553    -0.001     (0)  
   Fe(HS)2         4.761e-25   4.761e-25   -24.322   -24.322     0.000     (0)  
   Fe(HS)3-        4.905e-34   4.903e-34   -33.309   -33.310    -0.000     (0)  
S(6)          3.002e-16
   SO4-2           3.002e-16   2.998e-16   -15.523   -15.523    -0.001     (0)  
   HSO4-           2.917e-21   2.916e-21   -20.535   -20.535    -0.000     (0)  
   FeSO4           3.184e-25   3.184e-25   -24.497   -24.497     0.000     (0)  
   FeSO4+          0.000e+00   0.000e+00   -40.088   -40.088    -0.000     (0)  
   Fe(SO4)2-       0.000e+00   0.000e+00   -54.111   -54.111    -0.000     (0)  

------------------------------Saturation indices-------------------------------

  Phase               SI** log IAP   log K(298 K,   1 atm)

  Fe2(SO4)3      -107.12   -103.54    3.58  Fe2(SO4)3
  Fe3(OH)8        -32.42    -12.20   20.22  Fe3(OH)8
  Ferrihydrite    -12.38     -7.49    4.89  Fe(OH)3
  FeS(ppt)        -11.33    -15.25   -3.92  FeS
  Goethite         -7.99     -7.49    0.50  FeOOH
  Greigite        -43.35    -56.53  -13.18  Fe3S4
  Hematite        -10.97    -14.98   -4.01  Fe2O3
  Jarosite-H      -69.41    -81.51  -12.10  (H3O)Fe3(SO4)2(OH)6
  Lepidocrocite    -8.86     -7.49    1.37  FeOOH
  Mackinawite     -13.16     -8.31    4.85  FeS
  Maghemite       -21.36    -14.98    6.39  Fe2O3
  Magnetite       -15.94    -12.20    3.74  Fe3O4
  Melanterite     -24.28    -26.75   -2.47  FeSO4:7H2O
  O2(g)           -72.04     11.08   83.12  O2
  pe_fix            4.23      4.23    0.00  e-
  pH_fix           -7.00     -7.00    0.00  H+
  Pyrite          -10.98    -39.91  -28.93  FeS2
  Pyrrhotite      -12.05     -8.31    3.74  FeS
  Sulfur          -10.37    -12.48   -2.11  S

**For a gas, SI = log10(fugacity). Fugacity = pressure * phi / 1 atm.
  For ideal gases, phi = 1.

Reaction step 7.

Using solution 1.	PURE WATER
Using pure phase assemblage 1.	
Using reaction 1.	

Reaction 1.	

	  1.000e-12 moles of the following reaction have been added:

	                 Relative
	Reactant            moles

	Fe1S3                1.00000

	                 Relative
	Element             moles
	Fe                   1.00000
	S                    3.00000

-------------------------------Phase assemblage--------------------------------

                                                      Moles in assemblage
Phase               SI  log IAP  log K(T, P)   Initial       Final       Delta

Greigite        -42.88   -56.06    -13.18    0.000e+00           0   0.000e+00
Mackinawite     -13.02    -8.17      4.85    0.000e+00           0   0.000e+00
Pyrite          -10.78   -39.71    -28.93    0.000e+00           0   0.000e+00
Pyrrhotite      -11.92    -8.17      3.74    0.000e+00           0   0.000e+00

-----------------------------Solution composition------------------------------

	Elements           Molality       Moles

	Fe                7.000e-12   7.000e-12
	S                 2.100e-11   2.100e-11

----------------------------Description of solution----------------------------

                                       pH  =   6.999      Charge balance
                                       pe  =  -4.229      Adjusted to redox equilibrium
                        Activity of water  =   1.000
                 Ionic strength (mol/kgw)  =   1.003e-07
                       Mass of water (kg)  =   1.000e+00
                 Total alkalinity (eq/kg)  =   1.400e-11
                         Temperature (°C)  =  25.00
                  Electrical balance (eq)  =  -4.299e-16
 Percent error, 100*(Cat-|An|)/(Cat+|An|)  =  -0.00
                               Iterations  =   3
                                  Total H  = 1.110124e+02
                                  Total O  = 5.550622e+01

----------------------------Distribution of species----------------------------

                                               Log       Log       Log    mole V
   Species          Molality    Activity  Molality  Activity     Gamma    cm³/mol

   OH-             1.003e-07   1.002e-07    -6.999    -6.999    -0.000     (0)  
   H+              1.003e-07   1.002e-07    -6.999    -6.999    -0.000      0.00
   H2O             5.551e+01   1.000e+00     1.744    -0.000     0.000     18.07
Fe(2)         7.000e-12
   Fe+2            6.978e-12   6.968e-12   -11.156   -11.157    -0.001     (0)  
   FeOH+           2.199e-14   2.198e-14   -13.658   -13.658    -0.000     (0)  
   Fe(OH)2         1.867e-18   1.867e-18   -17.729   -17.729     0.000     (0)  
   Fe(OH)3-        6.923e-22   6.920e-22   -21.160   -21.160    -0.000     (0)  
   Fe(HS)2         7.560e-25   7.560e-25   -24.121   -24.121     0.000     (0)  
   FeSO4           4.350e-25   4.350e-25   -24.361   -24.361     0.000     (0)  
   Fe(HS)3-        9.087e-34   9.084e-34   -33.042   -33.042    -0.000     (0)  
Fe(3)         9.193e-21
   Fe(OH)2+        8.142e-21   8.139e-21   -20.089   -20.089    -0.000     (0)  
   Fe(OH)3         9.540e-22   9.540e-22   -21.020   -21.020     0.000     (0)  
   Fe(OH)4-        9.522e-23   9.518e-23   -22.021   -22.021    -0.000     (0)  
   FeOH+2          2.467e-24   2.463e-24   -23.608   -23.608    -0.001     (0)  
   Fe+3            3.837e-29   3.824e-29   -28.416   -28.417    -0.001     (0)  
   FeSO4+          1.117e-40   1.117e-40   -39.952   -39.952    -0.000     (0)  
   Fe2(OH)2+4      0.000e+00   0.000e+00   -45.784   -45.787    -0.003     (0)  
   Fe(SO4)2-       0.000e+00   0.000e+00   -53.906   -53.907    -0.000     (0)  
   Fe3(OH)4+5      0.000e+00   0.000e+00   -63.552   -63.556    -0.004     (0)  
H(0)          4.075e-09
   H2              2.037e-09   2.037e-09    -8.691    -8.691     0.000     (0)  
O(0)          0.000e+00
   O2              0.000e+00   0.000e+00   -74.998   -74.998     0.000     (0)  
S(-2)         2.100e-11
   HS-             1.104e-11   1.103e-11   -10.957   -10.957    -0.000     (0)  
   H2S             9.669e-12   9.669e-12   -11.015   -11.015     0.000     (0)  
   S5-2            2.801e-14   2.797e-14   -13.553   -13.553    -0.001     (0)  
   S4-2            1.634e-14   1.632e-14   -13.787   -13.787    -0.001     (0)  
   S6-2            1.450e-14   1.448e-14   -13.839   -13.839    -0.001     (0)  
   S-2             1.332e-17   1.330e-17   -16.876   -16.876    -0.001     (0)  
   S3-2            5.759e-18   5.751e-18   -17.240   -17.240    -0.001     (0)  
   S2-2            3.269e-19   3.264e-19   -18.486   -18.486    -0.001     (0)  
   Fe(HS)2         7.560e-25   7.560e-25   -24.121   -24.121     0.000     (0)  
   Fe(HS)3-        9.087e-34   9.084e-34   -33.042   -33.042    -0.000     (0)  
S(6)          3.516e-16
   SO4-2           3.516e-16   3.511e-16   -15.454   -15.455    -0.001     (0)  
   HSO4-           3.416e-21   3.415e-21   -20.466   -20.467    -0.000     (0)  
   FeSO4           4.350e-25   4.350e-25   -24.361   -24.361     0.000     (0)  
   FeSO4+          1.117e-40   1.117e-40   -39.952   -39.952    -0.000     (0)  
   Fe(SO4)2-       0.000e+00   0.000e+00   -53.906   -53.907    -0.000     (0)  

------------------------------Saturation indices-------------------------------

  Phase               SI** log IAP   log K(298 K,   1 atm)

  Fe2(SO4)3      -106.78   -103.20    3.58  Fe2(SO4)3
  Fe3(OH)8        -32.22    -12.00   20.22  Fe3(OH)8
  Ferrihydrite    -12.31     -7.42    4.89  Fe(OH)3
  FeS(ppt)        -11.20    -15.12   -3.92  FeS
  Goethite         -7.92     -7.42    0.50  FeOOH
  Greigite        -42.88    -56.06  -13.18  Fe3S4
  Hematite        -10.83    -14.84   -4.01  Fe2O3
  Jarosite-H      -69.07    -81.17  -12.10  (H3O)Fe3(SO4)2(OH)6
  Lepidocrocite    -8.79     -7.42    1.37  FeOOH
  Mackinawite     -13.02     -8.17    4.85  FeS
  Maghemite       -21.23    -14.84    6.39  Fe2O3
  Magnetite       -15.74    -12.00    3.74  Fe3O4
  Melanterite     -24.14    -26.61   -2.47  FeSO4:7H2O
  O2(g)           -72.04     11.08   83.12  O2
  pe_fix            4.23      4.23    0.00  e-
  pH_fix           -7.00     -7.00    0.00  H+
  Pyrite          -10.78    -39.71  -28.93  FeS2
  Pyrrhotite      -11.92     -8.17    3.74  FeS
  Sulfur          -10.31    -12.42   -2.11  S

**For a gas, SI = log10(fugacity). Fugacity = pressure * phi / 1 atm.
  For ideal gases, phi = 1.

Reaction step 8.

Using solution 1.	PURE WATER
Using pure phase assemblage 1.	
Using reaction 1.	

Reaction 1.	

	  1.000e-12 moles of the following reaction have been added:

	                 Relative
	Reactant            moles

	Fe1S3                1.00000

	                 Relative
	Element             moles
	Fe                   1.00000
	S                    3.00000

-------------------------------Phase assemblage--------------------------------

                                                      Moles in assemblage
Phase               SI  log IAP  log K(T, P)   Initial       Final       Delta

Greigite        -42.47   -55.65    -13.18    0.000e+00           0   0.000e+00
Mackinawite     -12.91    -8.06      4.85    0.000e+00           0   0.000e+00
Pyrite          -10.60   -39.54    -28.93    0.000e+00           0   0.000e+00
Pyrrhotite      -11.80    -8.06      3.74    0.000e+00           0   0.000e+00

-----------------------------Solution composition------------------------------

	Elements           Molality       Moles

	Fe                8.000e-12   8.000e-12
	S                 2.400e-11   2.400e-11

----------------------------Description of solution----------------------------

                                       pH  =   6.999      Charge balance
                                       pe  =  -4.228      Adjusted to redox equilibrium
                        Activity of water  =   1.000
                 Ionic strength (mol/kgw)  =   1.003e-07
                       Mass of water (kg)  =   1.000e+00
                 Total alkalinity (eq/kg)  =   1.600e-11
                         Temperature (°C)  =  25.00
                  Electrical balance (eq)  =  -4.298e-16
 Percent error, 100*(Cat-|An|)/(Cat+|An|)  =  -0.00
                               Iterations  =   3
                                  Total H  = 1.110124e+02
                                  Total O  = 5.550622e+01

----------------------------Distribution of species----------------------------

                                               Log       Log       Log    mole V
   Species          Molality    Activity  Molality  Activity     Gamma    cm³/mol

   OH-             1.003e-07   1.002e-07    -6.999    -6.999    -0.000     (0)  
   H+              1.003e-07   1.002e-07    -6.999    -6.999    -0.000      0.00
   H2O             5.551e+01   1.000e+00     1.744    -0.000     0.000     18.07
Fe(2)         8.000e-12
   Fe+2            7.975e-12   7.963e-12   -11.098   -11.099    -0.001     (0)  
   FeOH+           2.513e-14   2.512e-14   -13.600   -13.600    -0.000     (0)  
   Fe(OH)2         2.133e-18   2.133e-18   -17.671   -17.671     0.000     (0)  
   Fe(OH)3-        7.912e-22   7.909e-22   -21.102   -21.102    -0.000     (0)  
   Fe(HS)2         1.129e-24   1.129e-24   -23.947   -23.947     0.000     (0)  
   FeSO4           5.704e-25   5.704e-25   -24.244   -24.244     0.000     (0)  
   Fe(HS)3-        1.550e-33   1.550e-33   -32.810   -32.810    -0.000     (0)  
Fe(3)         1.051e-20
   Fe(OH)2+        9.309e-21   9.306e-21   -20.031   -20.031    -0.000     (0)  
   Fe(OH)3         1.091e-21   1.091e-21   -20.962   -20.962     0.000     (0)  
   Fe(OH)4-        1.089e-22   1.088e-22   -21.963   -21.963    -0.000     (0)  
   FeOH+2          2.821e-24   2.817e-24   -23.550   -23.550    -0.001     (0)  
   Fe+3            4.387e-29   4.373e-29   -28.358   -28.359    -0.001     (0)  
   FeSO4+          1.465e-40   1.465e-40   -39.834   -39.834    -0.000     (0)  
   Fe2(OH)2+4      0.000e+00   0.000e+00   -45.668   -45.671    -0.003     (0)  
   Fe(SO4)2-       0.000e+00   0.000e+00   -53.729   -53.729    -0.000     (0)  
   Fe3(OH)4+5      0.000e+00   0.000e+00   -63.378   -63.382    -0.004     (0)  
H(0)          4.071e-09
   H2              2.035e-09   2.035e-09    -8.691    -8.691     0.000     (0)  
O(0)          0.000e+00
   O2              0.000e+00   0.000e+00   -74.997   -74.997     0.000     (0)  
S(-2)         2.400e-11
   HS-             1.261e-11   1.261e-11   -10.899   -10.899    -0.000     (0)  
   H2S             1.105e-11   1.105e-11   -10.957   -10.957     0.000     (0)  
   S5-2            3.202e-14   3.197e-14   -13.495   -13.495    -0.001     (0)  
   S4-2            1.868e-14   1.865e-14   -13.729   -13.729    -0.001     (0)  
   S6-2            1.657e-14   1.655e-14   -13.781   -13.781    -0.001     (0)  
   S-2             1.522e-17   1.520e-17   -16.818   -16.818    -0.001     (0)  
   S3-2            6.582e-18   6.572e-18   -17.182   -17.182    -0.001     (0)  
   S2-2            3.736e-19   3.730e-19   -18.428   -18.428    -0.001     (0)  
   Fe(HS)2         1.129e-24   1.129e-24   -23.947   -23.947     0.000     (0)  
   Fe(HS)3-        1.550e-33   1.550e-33   -32.810   -32.810    -0.000     (0)  
S(6)          4.034e-16
   SO4-2           4.034e-16   4.028e-16   -15.394   -15.395    -0.001     (0)  
   HSO4-           3.919e-21   3.918e-21   -20.407   -20.407    -0.000     (0)  
   FeSO4           5.704e-25   5.704e-25   -24.244   -24.244     0.000     (0)  
   FeSO4+          1.465e-40   1.465e-40   -39.834   -39.834    -0.000     (0)  
   Fe(SO4)2-       0.000e+00   0.000e+00   -53.729   -53.729    -0.000     (0)  

------------------------------Saturation indices-------------------------------

  Phase               SI** log IAP   log K(298 K,   1 atm)

  Fe2(SO4)3      -106.48   -102.90    3.58  Fe2(SO4)3
  Fe3(OH)8        -32.05    -11.83   20.22  Fe3(OH)8
  Ferrihydrite    -12.25     -7.36    4.89  Fe(OH)3
  FeS(ppt)        -11.08    -15.00   -3.92  FeS
  Goethite         -7.86     -7.36    0.50  FeOOH
  Greigite        -42.47    -55.65  -13.18  Fe3S4
  Hematite        -10.72    -14.72   -4.01  Fe2O3
  Jarosite-H      -68.77    -80.87  -12.10  (H3O)Fe3(SO4)2(OH)6
  Lepidocrocite    -8.73     -7.36    1.37  FeOOH
  Mackinawite     -12.91     -8.06    4.85  FeS
  Maghemite       -21.11    -14.72    6.39  Fe2O3
  Magnetite       -15.56    -11.83    3.74  Fe3O4
  Melanterite     -24.02    -26.49   -2.47  FeSO4:7H2O
  O2(g)           -72.04     11.08   83.12  O2
  pe_fix            4.23      4.23    0.00  e-
  pH_fix           -7.00     -7.00    0.00  H+
  Pyrite          -10.60    -39.54  -28.93  FeS2
  Pyrrhotite      -11.80     -8.06    3.74  FeS
  Sulfur          -10.25    -12.36   -2.11  S

**For a gas, SI = log10(fugacity). Fugacity = pressure * phi / 1 atm.
  For ideal gases, phi = 1.

Reaction step 9.

Using solution 1.	PURE WATER
Using pure phase assemblage 1.	
Using reaction 1.	

Reaction 1.	

	  1.000e-12 moles of the following reaction have been added:

	                 Relative
	Reactant            moles

	Fe1S3                1.00000

	                 Relative
	Element             moles
	Fe                   1.00000
	S                    3.00000

-------------------------------Phase assemblage--------------------------------

                                                      Moles in assemblage
Phase               SI  log IAP  log K(T, P)   Initial       Final       Delta

Greigite        -42.11   -55.29    -13.18    0.000e+00           0   0.000e+00
Mackinawite     -12.81    -7.96      4.85    0.000e+00           0   0.000e+00
Pyrite          -10.45   -39.38    -28.93    0.000e+00           0   0.000e+00
Pyrrhotite      -11.70    -7.96      3.74    0.000e+00           0   0.000e+00

-----------------------------Solution composition------------------------------

	Elements           Molality       Moles

	Fe                9.000e-12   9.000e-12
	S                 2.700e-11   2.700e-11

----------------------------Description of solution----------------------------

                                       pH  =   6.999      Charge balance
                                       pe  =  -4.228      Adjusted to redox equilibrium
                        Activity of water  =   1.000
                 Ionic strength (mol/kgw)  =   1.003e-07
                       Mass of water (kg)  =   1.000e+00
                 Total alkalinity (eq/kg)  =   1.800e-11
                         Temperature (°C)  =  25.00
                  Electrical balance (eq)  =  -4.298e-16
 Percent error, 100*(Cat-|An|)/(Cat+|An|)  =  -0.00
                               Iterations  =   3
                                  Total H  = 1.110124e+02
                                  Total O  = 5.550622e+01

----------------------------Distribution of species----------------------------

                                               Log       Log       Log    mole V
   Species          Molality    Activity  Molality  Activity     Gamma    cm³/mol

   OH-             1.003e-07   1.002e-07    -6.999    -6.999    -0.000     (0)  
   H+              1.003e-07   1.002e-07    -6.999    -6.999    -0.000      0.00
   H2O             5.551e+01   1.000e+00     1.744    -0.000     0.000     18.07
Fe(2)         9.000e-12
   Fe+2            8.972e-12   8.958e-12   -11.047   -11.048    -0.001     (0)  
   FeOH+           2.827e-14   2.826e-14   -13.549   -13.549    -0.000     (0)  
   Fe(OH)2         2.400e-18   2.400e-18   -17.620   -17.620     0.000     (0)  
   Fe(OH)3-        8.901e-22   8.897e-22   -21.051   -21.051    -0.000     (0)  
   Fe(HS)2         1.607e-24   1.607e-24   -23.794   -23.794     0.000     (0)  
   FeSO4           7.247e-25   7.247e-25   -24.140   -24.140     0.000     (0)  
   Fe(HS)3-        2.483e-33   2.482e-33   -32.605   -32.605    -0.000     (0)  
Fe(3)         1.183e-20
   Fe(OH)2+        1.048e-20   1.047e-20   -19.980   -19.980    -0.000     (0)  
   Fe(OH)3         1.228e-21   1.228e-21   -20.911   -20.911     0.000     (0)  
   Fe(OH)4-        1.225e-22   1.225e-22   -21.912   -21.912    -0.000     (0)  
   FeOH+2          3.175e-24   3.170e-24   -23.498   -23.499    -0.001     (0)  
   Fe+3            4.938e-29   4.922e-29   -28.306   -28.308    -0.001     (0)  
   FeSO4+          1.863e-40   1.862e-40   -39.730   -39.730    -0.000     (0)  
   Fe2(OH)2+4      0.000e+00   0.000e+00   -45.565   -45.568    -0.003     (0)  
   Fe(SO4)2-       0.000e+00   0.000e+00   -53.572   -53.572    -0.000     (0)  
   Fe3(OH)4+5      0.000e+00   0.000e+00   -63.224   -63.228    -0.004     (0)  
H(0)          4.067e-09
   H2              2.033e-09   2.033e-09    -8.692    -8.692     0.000     (0)  
O(0)          0.000e+00
   O2              0.000e+00   0.000e+00   -74.996   -74.996     0.000     (0)  
S(-2)         2.700e-11
   HS-             1.419e-11   1.419e-11   -10.848   -10.848    -0.000     (0)  
   H2S             1.243e-11   1.243e-11   -10.905   -10.905     0.000     (0)  
   S5-2            3.602e-14   3.596e-14   -13.443   -13.444    -0.001     (0)  
   S4-2            2.101e-14   2.098e-14   -13.677   -13.678    -0.001     (0)  
   S6-2            1.864e-14   1.862e-14   -13.729   -13.730    -0.001     (0)  
   S-2             1.712e-17   1.710e-17   -16.766   -16.767    -0.001     (0)  
   S3-2            7.405e-18   7.394e-18   -17.130   -17.131    -0.001     (0)  
   S2-2            4.203e-19   4.196e-19   -18.376   -18.377    -0.001     (0)  
   Fe(HS)2         1.607e-24   1.607e-24   -23.794   -23.794     0.000     (0)  
   Fe(HS)3-        2.483e-33   2.482e-33   -32.605   -32.605    -0.000     (0)  
S(6)          4.556e-16
   SO4-2           4.556e-16   4.549e-16   -15.341   -15.342    -0.001     (0)  
   HSO4-           4.426e-21   4.424e-21   -20.354   -20.354    -0.000     (0)  
   FeSO4           7.247e-25   7.247e-25   -24.140   -24.140     0.000     (0)  
   FeSO4+          1.863e-40   1.862e-40   -39.730   -39.730    -0.000     (0)  
   Fe(SO4)2-       0.000e+00   0.000e+00   -53.572   -53.572    -0.000     (0)  

------------------------------Saturation indices-------------------------------

  Phase               SI** log IAP   log K(298 K,   1 atm)

  Fe2(SO4)3      -106.22   -102.64    3.58  Fe2(SO4)3
  Fe3(OH)8        -31.89    -11.67   20.22  Fe3(OH)8
  Ferrihydrite    -12.20     -7.31    4.89  Fe(OH)3
  FeS(ppt)        -10.98    -14.90   -3.92  FeS
  Goethite         -7.81     -7.31    0.50  FeOOH
  Greigite        -42.11    -55.29  -13.18  Fe3S4
  Hematite        -10.61    -14.62   -4.01  Fe2O3
  Jarosite-H      -68.51    -80.61  -12.10  (H3O)Fe3(SO4)2(OH)6
  Lepidocrocite    -8.68     -7.31    1.37  FeOOH
  Mackinawite     -12.81     -7.96    4.85  FeS
  Maghemite       -21.01    -14.62    6.39  Fe2O3
  Magnetite       -15.41    -11.67    3.74  Fe3O4
  Melanterite     -23.92    -26.39   -2.47  FeSO4:7H2O
  O2(g)           -72.04     11.08   83.12  O2
  pe_fix            4.23      4.23    0.00  e-
  pH_fix           -7.00     -7.00    0.00  H+
  Pyrite          -10.45    -39.38  -28.93  FeS2
  Pyrrhotite      -11.70     -7.96    3.74  FeS
  Sulfur          -10.20    -12.31   -2.11  S

**For a gas, SI = log10(fugacity). Fugacity = pressure * phi / 1 atm.
  For ideal gases, phi = 1.

Reaction step 10.

Using solution 1.	PURE WATER
Using pure phase assemblage 1.	
Using reaction 1.	

Reaction 1.	

	  1.000e-12 moles of the following reaction have been added:

	                 Relative
	Reactant            moles

	Fe1S3                1.00000

	                 Relative
	Element             moles
	Fe                   1.00000
	S                    3.00000

-------------------------------Phase assemblage--------------------------------

                                                      Moles in assemblage
Phase               SI  log IAP  log K(T, P)   Initial       Final       Delta

Greigite        -41.79   -54.97    -13.18    0.000e+00           0   0.000e+00
Mackinawite     -12.71    -7.86      4.85    0.000e+00           0   0.000e+00
Pyrite          -10.31   -39.25    -28.93    0.000e+00           0   0.000e+00
Pyrrhotite      -11.61    -7.86      3.74    0.000e+00           0   0.000e+00

-----------------------------Solution composition------------------------------

	Elements           Molality       Moles

	Fe                1.000e-11   1.000e-11
	S                 3.000e-11   3.000e-11

----------------------------Description of solution----------------------------

                                       pH  =   6.999      Charge balance
                                       pe  =  -4.228      Adjusted to redox equilibrium
                        Activity of water  =   1.000
                 Ionic strength (mol/kgw)  =   1.003e-07
                       Mass of water (kg)  =   1.000e+00
                 Total alkalinity (eq/kg)  =   2.000e-11
                         Temperature (°C)  =  25.00
                  Electrical balance (eq)  =  -4.298e-16
 Percent error, 100*(Cat-|An|)/(Cat+|An|)  =  -0.00
                               Iterations  =   3
                                  Total H  = 1.110124e+02
                                  Total O  = 5.550622e+01

----------------------------Distribution of species----------------------------

                                               Log       Log       Log    mole V
   Species          Molality    Activity  Molality  Activity     Gamma    cm³/mol

   OH-             1.003e-07   1.002e-07    -6.999    -6.999    -0.000     (0)  
   H+              1.003e-07   1.002e-07    -6.999    -6.999    -0.000      0.00
   H2O             5.551e+01   1.000e+00     1.744    -0.000     0.000     18.07
Fe(2)         1.000e-11
   Fe+2            9.969e-12   9.954e-12   -11.001   -11.002    -0.001     (0)  
   FeOH+           3.142e-14   3.140e-14   -13.503   -13.503    -0.000     (0)  
   Fe(OH)2         2.667e-18   2.667e-18   -17.574   -17.574     0.000     (0)  
   Fe(OH)3-        9.890e-22   9.886e-22   -21.005   -21.005    -0.000     (0)  
   Fe(HS)2         2.204e-24   2.204e-24   -23.657   -23.657     0.000     (0)  
   FeSO4           8.981e-25   8.981e-25   -24.047   -24.047     0.000     (0)  
   Fe(HS)3-        3.785e-33   3.783e-33   -32.422   -32.422    -0.000     (0)  
Fe(3)         1.315e-20
   Fe(OH)2+        1.165e-20   1.164e-20   -19.934   -19.934    -0.000     (0)  
   Fe(OH)3         1.365e-21   1.365e-21   -20.865   -20.865     0.000     (0)  
   Fe(OH)4-        1.362e-22   1.362e-22   -21.866   -21.866    -0.000     (0)  
   FeOH+2          3.530e-24   3.524e-24   -23.452   -23.453    -0.001     (0)  
   Fe+3            5.489e-29   5.471e-29   -28.260   -28.262    -0.001     (0)  
   FeSO4+          2.310e-40   2.309e-40   -39.636   -39.637    -0.000     (0)  
   Fe2(OH)2+4      0.000e+00   0.000e+00   -45.473   -45.476    -0.003     (0)  
   Fe(SO4)2-       0.000e+00   0.000e+00   -53.431   -53.431    -0.000     (0)  
   Fe3(OH)4+5      0.000e+00   0.000e+00   -63.086   -63.090    -0.004     (0)  
H(0)          4.063e-09
   H2              2.032e-09   2.032e-09    -8.692    -8.692     0.000     (0)  
O(0)          0.000e+00
   O2              0.000e+00   0.000e+00   -74.996   -74.996     0.000     (0)  
S(-2)         3.000e-11
   HS-             1.577e-11   1.576e-11   -10.802   -10.802    -0.000     (0)  
   H2S             1.381e-11   1.381e-11   -10.860   -10.860     0.000     (0)  
   S5-2            4.002e-14   3.996e-14   -13.398   -13.398    -0.001     (0)  
   S4-2            2.335e-14   2.331e-14   -13.632   -13.632    -0.001     (0)  
   S6-2            2.071e-14   2.068e-14   -13.684   -13.684    -0.001     (0)  
   S-2             1.902e-17   1.899e-17   -16.721   -16.721    -0.001     (0)  
   S3-2            8.228e-18   8.216e-18   -17.085   -17.085    -0.001     (0)  
   S2-2            4.670e-19   4.663e-19   -18.331   -18.331    -0.001     (0)  
   Fe(HS)2         2.204e-24   2.204e-24   -23.657   -23.657     0.000     (0)  
   Fe(HS)3-        3.785e-33   3.783e-33   -32.422   -32.422    -0.000     (0)  
S(6)          5.082e-16
   SO4-2           5.082e-16   5.074e-16   -15.294   -15.295    -0.001     (0)  
   HSO4-           4.937e-21   4.935e-21   -20.307   -20.307    -0.000     (0)  
   FeSO4           8.981e-25   8.981e-25   -24.047   -24.047     0.000     (0)  
   FeSO4+          2.310e-40   2.309e-40   -39.636   -39.637    -0.000     (0)  
   Fe(SO4)2-       0.000e+00   0.000e+00   -53.431   -53.431    -0.000     (0)  

------------------------------Saturation indices-------------------------------

  Phase               SI** log IAP   log K(298 K,   1 atm)

  Fe2(SO4)3      -105.99   -102.41    3.58  Fe2(SO4)3
  Fe3(OH)8        -31.76    -11.53   20.22  Fe3(OH)8
  Ferrihydrite    -12.16     -7.26    4.89  Fe(OH)3
  FeS(ppt)        -10.89    -14.81   -3.92  FeS
  Goethite         -7.76     -7.26    0.50  FeOOH
  Greigite        -41.79    -54.97  -13.18  Fe3S4
  Hematite        -10.52    -14.53   -4.01  Fe2O3
  Jarosite-H      -68.28    -80.38  -12.10  (H3O)Fe3(SO4)2(OH)6
  Lepidocrocite    -8.64     -7.26    1.37  FeOOH
  Mackinawite     -12.71     -7.86    4.85  FeS
  Maghemite       -20.92    -14.53    6.39  Fe2O3
  Magnetite       -15.27    -11.53    3.74  Fe3O4
  Melanterite     -23.83    -26.30   -2.47  FeSO4:7H2O
  O2(g)           -72.04     11.08   83.12  O2
  pe_fix            4.23      4.23    0.00  e-
  pH_fix           -7.00     -7.00    0.00  H+
  Pyrite          -10.31    -39.25  -28.93  FeS2
  Pyrrhotite      -11.61     -7.86    3.74  FeS
  Sulfur          -10.15    -12.26   -2.11  S

**For a gas, SI = log10(fugacity). Fugacity = pressure * phi / 1 atm.
  For ideal gases, phi = 1.

Reaction step 11.

Using solution 1.	PURE WATER
Using pure phase assemblage 1.	
Using reaction 1.	

Reaction 1.	

	  1.000e-11 moles of the following reaction have been added:

	                 Relative
	Reactant            moles

	Fe1S3                1.00000

	                 Relative
	Element             moles
	Fe                   1.00000
	S                    3.00000

-------------------------------Phase assemblage--------------------------------

                                                      Moles in assemblage
Phase               SI  log IAP  log K(T, P)   Initial       Final       Delta

Greigite        -39.68   -52.86    -13.18    0.000e+00           0   0.000e+00
Mackinawite     -12.11    -7.26      4.85    0.000e+00           0   0.000e+00
Pyrite           -9.40   -38.34    -28.93    0.000e+00           0   0.000e+00
Pyrrhotite      -11.00    -7.26      3.74    0.000e+00           0   0.000e+00

-----------------------------Solution composition------------------------------

	Elements           Molality       Moles

	Fe                2.000e-11   2.000e-11
	S                 6.000e-11   6.000e-11

----------------------------Description of solution----------------------------

                                       pH  =   6.999      Charge balance
                                       pe  =  -4.226      Adjusted to redox equilibrium
                        Activity of water  =   1.000
                 Ionic strength (mol/kgw)  =   1.003e-07
                       Mass of water (kg)  =   1.000e+00
                 Total alkalinity (eq/kg)  =   4.000e-11
                         Temperature (°C)  =  25.00
                  Electrical balance (eq)  =  -4.298e-16
 Percent error, 100*(Cat-|An|)/(Cat+|An|)  =  -0.00
                               Iterations  =   5
                                  Total H  = 1.110124e+02
                                  Total O  = 5.550622e+01

----------------------------Distribution of species----------------------------

                                               Log       Log       Log    mole V
   Species          Molality    Activity  Molality  Activity     Gamma    cm³/mol

   OH-             1.003e-07   1.002e-07    -6.999    -6.999    -0.000     (0)  
   H+              1.003e-07   1.002e-07    -6.999    -6.999    -0.000      0.00
   H2O             5.551e+01   1.000e+00     1.744    -0.000     0.000     18.07
Fe(2)         2.000e-11
   Fe+2            1.994e-11   1.991e-11   -10.700   -10.701    -0.001     (0)  
   FeOH+           6.283e-14   6.281e-14   -13.202   -13.202    -0.000     (0)  
   Fe(OH)2         5.334e-18   5.334e-18   -17.273   -17.273     0.000     (0)  
   Fe(OH)3-        1.978e-21   1.977e-21   -20.704   -20.704    -0.000     (0)  
   Fe(HS)2         1.763e-23   1.763e-23   -22.754   -22.754     0.000     (0)  
   FeSO4           3.735e-24   3.735e-24   -23.428   -23.428     0.000     (0)  
   Fe(HS)3-        6.056e-32   6.053e-32   -31.218   -31.218    -0.000     (0)  
Fe(3)         2.643e-20
   Fe(OH)2+        2.341e-20   2.340e-20   -19.631   -19.631    -0.000     (0)  
   Fe(OH)3         2.743e-21   2.743e-21   -20.562   -20.562     0.000     (0)  
   Fe(OH)4-        2.738e-22   2.737e-22   -21.563   -21.563    -0.000     (0)  
   FeOH+2          7.094e-24   7.083e-24   -23.149   -23.150    -0.001     (0)  
   Fe+3            1.103e-28   1.100e-28   -27.957   -27.959    -0.001     (0)  
   FeSO4+          9.653e-40   9.649e-40   -39.015   -39.016    -0.000     (0)  
   Fe2(OH)2+4      0.000e+00   0.000e+00   -44.867   -44.870    -0.003     (0)  
   Fe(SO4)2-       0.000e+00   0.000e+00   -52.492   -52.492    -0.000     (0)  
   Fe3(OH)4+5      0.000e+00   0.000e+00   -62.176   -62.180    -0.004     (0)  
H(0)          4.024e-09
   H2              2.012e-09   2.012e-09    -8.696    -8.696     0.000     (0)  
O(0)          0.000e+00
   O2              0.000e+00   0.000e+00   -74.987   -74.987     0.000     (0)  
S(-2)         6.000e-11
   HS-             3.154e-11   3.153e-11   -10.501   -10.501    -0.000     (0)  
   H2S             2.763e-11   2.763e-11   -10.559   -10.559     0.000     (0)  
   S5-2            8.004e-14   7.992e-14   -13.097   -13.097    -0.001     (0)  
   S4-2            4.670e-14   4.663e-14   -13.331   -13.331    -0.001     (0)  
   S6-2            4.143e-14   4.137e-14   -13.383   -13.383    -0.001     (0)  
   S-2             3.805e-17   3.799e-17   -16.420   -16.420    -0.001     (0)  
   S3-2            1.646e-17   1.643e-17   -16.784   -16.784    -0.001     (0)  
   S2-2            9.339e-19   9.326e-19   -18.030   -18.030    -0.001     (0)  
   Fe(HS)2         1.763e-23   1.763e-23   -22.754   -22.754     0.000     (0)  
   Fe(HS)3-        6.056e-32   6.053e-32   -31.218   -31.218    -0.000     (0)  
S(6)          1.057e-15
   SO4-2           1.057e-15   1.055e-15   -14.976   -14.977    -0.001     (0)  
   HSO4-           1.027e-20   1.026e-20   -19.989   -19.989    -0.000     (0)  
   FeSO4           3.735e-24   3.735e-24   -23.428   -23.428     0.000     (0)  
   FeSO4+          9.653e-40   9.649e-40   -39.015   -39.016    -0.000     (0)  
   Fe(SO4)2-       0.000e+00   0.000e+00   -52.492   -52.492    -0.000     (0)  

------------------------------Saturation indices-------------------------------

  Phase               SI** log IAP   log K(298 K,   1 atm)

  Fe2(SO4)3      -104.43   -100.85    3.58  Fe2(SO4)3
  Fe3(OH)8        -30.85    -10.63   20.22  Fe3(OH)8
  Ferrihydrite    -11.85     -6.96    4.89  Fe(OH)3
  FeS(ppt)        -10.29    -14.20   -3.92  FeS
  Goethite         -7.46     -6.96    0.50  FeOOH
  Greigite        -39.68    -52.86  -13.18  Fe3S4
  Hematite         -9.92    -13.92   -4.01  Fe2O3
  Jarosite-H      -66.73    -78.83  -12.10  (H3O)Fe3(SO4)2(OH)6
  Lepidocrocite    -8.33     -6.96    1.37  FeOOH
  Mackinawite     -12.11     -7.26    4.85  FeS
  Maghemite       -20.31    -13.92    6.39  Fe2O3
  Magnetite       -14.36    -10.63    3.74  Fe3O4
  Melanterite     -23.21    -25.68   -2.47  FeSO4:7H2O
  O2(g)           -72.03     11.09   83.12  O2
  pe_fix            4.23      4.23    0.00  e-
  pH_fix           -7.00     -7.00    0.00  H+
  Pyrite           -9.40    -38.34  -28.93  FeS2
  Pyrrhotite      -11.00     -7.26    3.74  FeS
  Sulfur           -9.84    -11.95   -2.11  S

**For a gas, SI = log10(fugacity). Fugacity = pressure * phi / 1 atm.
  For ideal gases, phi = 1.

Reaction step 12.

Using solution 1.	PURE WATER
Using pure phase assemblage 1.	
Using reaction 1.	

Reaction 1.	

	  1.000e-11 moles of the following reaction have been added:

	                 Relative
	Reactant            moles

	Fe1S3                1.00000

	                 Relative
	Element             moles
	Fe                   1.00000
	S                    3.00000

-------------------------------Phase assemblage--------------------------------

                                                      Moles in assemblage
Phase               SI  log IAP  log K(T, P)   Initial       Final       Delta

Greigite        -38.45   -51.62    -13.18    0.000e+00           0   0.000e+00
Mackinawite     -11.76    -6.91      4.85    0.000e+00           0   0.000e+00
Pyrite           -8.87   -37.81    -28.93    0.000e+00           0   0.000e+00
Pyrrhotite      -10.65    -6.91      3.74    0.000e+00           0   0.000e+00

-----------------------------Solution composition------------------------------

	Elements           Molality       Moles

	Fe                3.000e-11   3.000e-11
	S                 9.000e-11   9.000e-11

----------------------------Description of solution----------------------------

                                       pH  =   6.999      Charge balance
                                       pe  =  -4.224      Adjusted to redox equilibrium
                        Activity of water  =   1.000
                 Ionic strength (mol/kgw)  =   1.004e-07
                       Mass of water (kg)  =   1.000e+00
                 Total alkalinity (eq/kg)  =   6.000e-11
[...]
  For ideal gases, phi = 1.

Reaction step 108.

Using solution 1.	PURE WATER
Using pure phase assemblage 1.	
Using reaction 1.	

Reaction 1.	

	  1.000e-02 moles of the following reaction have been added:

	                 Relative
	Reactant            moles

	Fe1S3                1.00000

	                 Relative
	Element             moles
	Fe                   1.00000
	S                    3.00000

-------------------------------Phase assemblage--------------------------------

                                                      Moles in assemblage
Phase               SI  log IAP  log K(T, P)   Initial       Final       Delta

Greigite         12.69    11.06     -1.63    0.000e+00           0   0.000e+00
Mackinawite     -18.75   -13.90      4.85    0.000e+00           0   0.000e+00
Pyrite            7.14     0.00     -7.14    8.111e-02   9.111e-02   1.000e-02
Pyrrhotite      -17.64   -13.90      3.74    0.000e+00           0   0.000e+00

-----------------------------Solution composition------------------------------

	Elements           Molality       Moles

	Fe                3.788e-16   3.782e-16
	S                 9.126e-02   9.111e-02

----------------------------Description of solution----------------------------

                                       pH  =   1.561      Charge balance
                                       pe  =   2.974      Adjusted to redox equilibrium
                        Activity of water  =   0.998
                 Ionic strength (mol/kgw)  =   4.102e-02
                       Mass of water (kg)  =   9.984e-01
                 Total alkalinity (eq/kg)  =  -4.563e-02
                         Temperature (°C)  =  25.00
                  Electrical balance (eq)  =  -4.157e-10
 Percent error, 100*(Cat-|An|)/(Cat+|An|)  =  -0.00
                               Iterations  =   5
                                  Total H  = 1.110124e+02
                                  Total O  = 5.550622e+01

----------------------------Distribution of species----------------------------

                                               Log       Log       Log    mole V
   Species          Molality    Activity  Molality  Activity     Gamma    cm³/mol

   H+              3.192e-02   2.751e-02    -1.496    -1.561    -0.065      0.00
   OH-             4.420e-13   3.645e-13   -12.355   -12.438    -0.084     (0)  
   H2O             5.551e+01   9.979e-01     1.744    -0.001     0.000     18.07
Fe(2)         3.788e-16
   Fe+2            2.741e-16   1.389e-16   -15.562   -15.857    -0.295     (0)  
   FeSO4           1.047e-16   1.057e-16   -15.980   -15.976     0.004     (0)  
   Fe(HS)2         1.012e-20   1.022e-20   -19.995   -19.991     0.004     (0)  
   FeOH+           1.905e-24   1.593e-24   -23.720   -23.798    -0.078     (0)  
   Fe(HS)3-        3.839e-25   3.196e-25   -24.416   -24.495    -0.080     (0)  
   Fe(OH)2         4.874e-34   4.920e-34   -33.312   -33.308     0.004     (0)  
   Fe(OH)3-        0.000e+00   0.000e+00   -42.101   -42.178    -0.078     (0)  
Fe(3)         6.393e-25
   FeSO4+          5.168e-25   4.323e-25   -24.287   -24.364    -0.078     (0)  
   Fe(SO4)2-       7.025e-26   5.848e-26   -25.153   -25.233    -0.080     (0)  
   Fe+3            4.636e-26   1.215e-26   -25.334   -25.915    -0.582     (0)  
   FeOH+2          5.812e-27   2.846e-27   -26.236   -26.546    -0.310     (0)  
   Fe(OH)2+        4.073e-29   3.419e-29   -28.390   -28.466    -0.076     (0)  
   Fe(OH)3         1.444e-35   1.457e-35   -34.841   -34.836     0.004     (0)  
   Fe(OH)4-        0.000e+00   0.000e+00   -41.201   -41.277    -0.076     (0)  
   Fe2(OH)2+4      0.000e+00   0.000e+00   -50.388   -51.662    -1.274     (0)  
   Fe3(OH)4+5      0.000e+00   0.000e+00   -75.817   -77.808    -1.991     (0)  
H(0)          1.197e-12
   H2              5.983e-13   6.040e-13   -12.223   -12.219     0.004     (0)  
O(0)          0.000e+00
   O2              0.000e+00   0.000e+00   -67.948   -67.944     0.004     (0)  
S(-2)         6.845e-02
   H2S             6.845e-02   6.909e-02    -1.165    -1.161     0.004     (0)  
   HS-             3.484e-07   2.873e-07    -6.458    -6.542    -0.084     (0)  
   S5-2            5.526e-15   2.654e-15   -14.258   -14.576    -0.319     (0)  
   S4-2            3.224e-15   1.548e-15   -14.492   -14.810    -0.319     (0)  
   S6-2            2.860e-15   1.374e-15   -14.544   -14.862    -0.319     (0)  
   S-2             2.576e-18   1.262e-18   -17.589   -17.899    -0.310     (0)  
   S3-2            1.136e-18   5.456e-19   -17.945   -18.263    -0.319     (0)  
   S2-2            6.448e-20   3.097e-20   -19.191   -19.509    -0.319     (0)  
   Fe(HS)2         1.012e-20   1.022e-20   -19.995   -19.991     0.004     (0)  
   Fe(HS)3-        3.839e-25   3.196e-25   -24.416   -24.495    -0.080     (0)  
S(6)          2.282e-02
   HSO4-           1.371e-02   1.142e-02    -1.863    -1.942    -0.079     (0)  
   SO4-2           9.103e-03   4.278e-03    -2.041    -2.369    -0.328     (0)  
   FeSO4           1.047e-16   1.057e-16   -15.980   -15.976     0.004     (0)  
   FeSO4+          5.168e-25   4.323e-25   -24.287   -24.364    -0.078     (0)  
   Fe(SO4)2-       7.025e-26   5.848e-26   -25.153   -25.233    -0.080     (0)  

------------------------------Saturation indices-------------------------------

  Phase               SI** log IAP   log K(298 K,   1 atm)

  Fe2(SO4)3       -62.52    -58.94    3.58  Fe2(SO4)3
  Fe3(OH)8        -75.43    -55.21   20.22  Fe3(OH)8
  Ferrihydrite    -26.13    -21.24    4.89  Fe(OH)3
  FeS(ppt)        -16.92    -20.84   -3.92  FeS
  Goethite        -21.74    -21.24    0.50  FeOOH
  Greigite        -43.55    -58.40  -14.85  Fe3S4
  Hematite        -38.46    -42.47   -4.01  Fe2O3
  Jarosite-H      -62.59    -74.69  -12.10  (H3O)Fe3(SO4)2(OH)6
  Lepidocrocite   -22.61    -21.24    1.37  FeOOH
  Mackinawite     -18.75    -13.90    4.85  FeS
  Maghemite       -48.86    -42.47    6.39  Fe2O3
  Magnetite       -58.94    -55.21    3.74  Fe3O4
  Melanterite     -15.76    -18.23   -2.47  FeSO4:7H2O
  O2(g)           -64.98     18.14   83.12  O2
  pe_fix           -2.97     -2.97    0.00  e-
  pH_fix           -1.56     -1.56    0.00  H+
  Pyrite            0.00    -16.72  -16.72  FeS2
  Pyrrhotite      -17.64    -13.90    3.74  FeS
  Sulfur            3.08      0.97   -2.11  S

**For a gas, SI = log10(fugacity). Fugacity = pressure * phi / 1 atm.
  For ideal gases, phi = 1.

Reaction step 109.

Using solution 1.	PURE WATER
Using pure phase assemblage 1.	
Using reaction 1.	

Reaction 1.	

	  1.000e-02 moles of the following reaction have been added:

	                 Relative
	Reactant            moles

	Fe1S3                1.00000

	                 Relative
	Element             moles
	Fe                   1.00000
	S                    3.00000

-------------------------------Phase assemblage--------------------------------

                                                      Moles in assemblage
Phase               SI  log IAP  log K(T, P)   Initial       Final       Delta

Greigite         12.75    11.12     -1.63    0.000e+00           0   0.000e+00
Mackinawite     -18.80   -13.95      4.85    0.000e+00           0   0.000e+00
Pyrite            7.14     0.00     -7.14    9.111e-02   1.011e-01   1.000e-02
Pyrrhotite      -17.70   -13.95      3.74    0.000e+00           0   0.000e+00

-----------------------------Solution composition------------------------------

	Elements           Molality       Moles

	Fe                3.656e-16   3.650e-16
	S                 1.013e-01   1.011e-01

----------------------------Description of solution----------------------------

                                       pH  =   1.522      Charge balance
                                       pe  =   3.018      Adjusted to redox equilibrium
                        Activity of water  =   0.998
                 Ionic strength (mol/kgw)  =   4.471e-02
                       Mass of water (kg)  =   9.982e-01
                 Total alkalinity (eq/kg)  =  -5.065e-02
                         Temperature (°C)  =  25.00
                  Electrical balance (eq)  =  -5.620e-10
 Percent error, 100*(Cat-|An|)/(Cat+|An|)  =  -0.00
                               Iterations  =   5
                                  Total H  = 1.110124e+02
                                  Total O  = 5.550622e+01

----------------------------Distribution of species----------------------------

                                               Log       Log       Log    mole V
   Species          Molality    Activity  Molality  Activity     Gamma    cm³/mol

   H+              3.502e-02   3.005e-02    -1.456    -1.522    -0.066      0.00
   OH-             4.072e-13   3.335e-13   -12.390   -12.477    -0.087     (0)  
   H2O             5.551e+01   9.977e-01     1.744    -0.001     0.000     18.07
Fe(2)         3.656e-16
   Fe+2            2.635e-16   1.307e-16   -15.579   -15.884    -0.304     (0)  
   FeSO4           1.021e-16   1.031e-16   -15.991   -15.987     0.004     (0)  
   Fe(HS)2         9.840e-21   9.942e-21   -20.007   -20.003     0.004     (0)  
   FeOH+           1.650e-24   1.372e-24   -23.782   -23.863    -0.080     (0)  
   Fe(HS)3-        3.821e-25   3.162e-25   -24.418   -24.500    -0.082     (0)  
   Fe(OH)2         3.838e-34   3.878e-34   -33.416   -33.411     0.004     (0)  
   Fe(OH)3-        0.000e+00   0.000e+00   -42.240   -42.320    -0.080     (0)  
Fe(3)         6.971e-25
   FeSO4+          5.621e-25   4.674e-25   -24.250   -24.330    -0.080     (0)  
   Fe(SO4)2-       7.924e-26   6.558e-26   -25.101   -25.183    -0.082     (0)  
   Fe+3            5.011e-26   1.267e-26   -25.300   -25.897    -0.597     (0)  
   FeOH+2          5.675e-27   2.715e-27   -26.246   -26.566    -0.320     (0)  
   Fe(OH)2+        3.575e-29   2.985e-29   -28.447   -28.525    -0.078     (0)  
   Fe(OH)3         1.152e-35   1.164e-35   -34.938   -34.934     0.004     (0)  
   Fe(OH)4-        0.000e+00   0.000e+00   -41.335   -41.413    -0.078     (0)  
   Fe2(OH)2+4      0.000e+00   0.000e+00   -50.388   -51.702    -1.315     (0)  
   Fe3(OH)4+5      0.000e+00   0.000e+00   -75.853   -77.908    -2.054     (0)  
H(0)          1.163e-12
   H2              5.817e-13   5.877e-13   -12.235   -12.231     0.004     (0)  
O(0)          0.000e+00
   O2              0.000e+00   0.000e+00   -67.925   -67.920     0.004     (0)  
S(-2)         7.597e-02
   H2S             7.597e-02   7.676e-02    -1.119    -1.115     0.004     (0)  
   HS-             3.567e-07   2.921e-07    -6.448    -6.534    -0.087     (0)  
   S5-2            5.264e-15   2.470e-15   -14.279   -14.607    -0.329     (0)  
   S4-2            3.071e-15   1.441e-15   -14.513   -14.841    -0.329     (0)  
   S6-2            2.725e-15   1.278e-15   -14.565   -14.893    -0.329     (0)  
   S-2             2.454e-18   1.174e-18   -17.610   -17.930    -0.320     (0)  
   S3-2            1.082e-18   5.077e-19   -17.966   -18.294    -0.329     (0)  
   S2-2            6.142e-20   2.882e-20   -19.212   -19.540    -0.329     (0)  
   Fe(HS)2         9.840e-21   9.942e-21   -20.007   -20.003     0.004     (0)  
   Fe(HS)3-        3.821e-25   3.162e-25   -24.418   -24.500    -0.082     (0)  
S(6)          2.532e-02
   HSO4-           1.563e-02   1.294e-02    -1.806    -1.888    -0.082     (0)  
   SO4-2           9.691e-03   4.436e-03    -2.014    -2.353    -0.339     (0)  
   FeSO4           1.021e-16   1.031e-16   -15.991   -15.987     0.004     (0)  
   FeSO4+          5.621e-25   4.674e-25   -24.250   -24.330    -0.080     (0)  
   Fe(SO4)2-       7.924e-26   6.558e-26   -25.101   -25.183    -0.082     (0)  

------------------------------Saturation indices-------------------------------

  Phase               SI** log IAP   log K(298 K,   1 atm)

  Fe2(SO4)3       -62.43    -58.85    3.58  Fe2(SO4)3
  Fe3(OH)8        -75.73    -55.51   20.22  Fe3(OH)8
  Ferrihydrite    -26.23    -21.33    4.89  Fe(OH)3
  FeS(ppt)        -16.98    -20.90   -3.92  FeS
  Goethite        -21.83    -21.33    0.50  FeOOH
  Greigite        -43.66    -58.51  -14.85  Fe3S4
  Hematite        -38.66    -42.67   -4.01  Fe2O3
  Jarosite-H      -62.69    -74.79  -12.10  (H3O)Fe3(SO4)2(OH)6
  Lepidocrocite   -22.70    -21.33    1.37  FeOOH
  Mackinawite     -18.80    -13.95    4.85  FeS
  Maghemite       -49.05    -42.67    6.39  Fe2O3
  Magnetite       -59.24    -55.51    3.74  Fe3O4
  Melanterite     -15.77    -18.24   -2.47  FeSO4:7H2O
  O2(g)           -64.96     18.16   83.12  O2
  pe_fix           -3.02     -3.02    0.00  e-
  pH_fix           -1.52     -1.52    0.00  H+
  Pyrite           -0.00    -16.72  -16.72  FeS2
  Pyrrhotite      -17.70    -13.95    3.74  FeS
  Sulfur            3.13      1.02   -2.11  S

**For a gas, SI = log10(fugacity). Fugacity = pressure * phi / 1 atm.
  For ideal gases, phi = 1.

Reaction step 110.

Using solution 1.	PURE WATER
Using pure phase assemblage 1.	
Using reaction 1.	

Reaction 1.	

	  1.000e-02 moles of the following reaction have been added:

	                 Relative
	Reactant            moles

	Fe1S3                1.00000

	                 Relative
	Element             moles
	Fe                   1.00000
	S                    3.00000

-------------------------------Phase assemblage--------------------------------

                                                      Moles in assemblage
Phase               SI  log IAP  log K(T, P)   Initial       Final       Delta

Greigite         12.80    11.17     -1.63    0.000e+00           0   0.000e+00
Mackinawite     -18.86   -14.01      4.85    0.000e+00           0   0.000e+00
Pyrite            7.14     0.00     -7.14    1.011e-01   1.111e-01   1.000e-02
Pyrrhotite      -17.75   -14.01      3.74    0.000e+00           0   0.000e+00

-----------------------------Solution composition------------------------------

	Elements           Molality       Moles

	Fe                3.542e-16   3.535e-16
	S                 1.113e-01   1.111e-01

----------------------------Description of solution----------------------------

                                       pH  =   1.487      Charge balance
                                       pe  =   3.059      Adjusted to redox equilibrium
                        Activity of water  =   0.997
                 Ionic strength (mol/kgw)  =   4.833e-02
                       Mass of water (kg)  =   9.980e-01
                 Total alkalinity (eq/kg)  =  -5.567e-02
                         Temperature (°C)  =  25.00
                  Electrical balance (eq)  =  -6.840e-10
 Percent error, 100*(Cat-|An|)/(Cat+|An|)  =  -0.00
                               Iterations  =   5
                                  Total H  = 1.110124e+02
                                  Total O  = 5.550622e+01

----------------------------Distribution of species----------------------------

                                               Log       Log       Log    mole V
   Species          Molality    Activity  Molality  Activity     Gamma    cm³/mol

   H+              3.808e-02   3.257e-02    -1.419    -1.487    -0.068      0.00
   OH-             3.781e-13   3.077e-13   -12.422   -12.512    -0.090     (0)  
   H2O             5.551e+01   9.975e-01     1.744    -0.001     0.000     18.07
Fe(2)         3.542e-16
   Fe+2            2.545e-16   1.238e-16   -15.594   -15.907    -0.313     (0)  
   FeSO4           9.969e-17   1.008e-16   -16.001   -15.997     0.005     (0)  
   Fe(HS)2         9.594e-21   9.701e-21   -20.018   -20.013     0.005     (0)  
   FeOH+           1.449e-24   1.199e-24   -23.839   -23.921    -0.082     (0)  
   Fe(HS)3-        3.806e-25   3.133e-25   -24.420   -24.504    -0.085     (0)  
   Fe(OH)2         3.091e-34   3.126e-34   -33.510   -33.505     0.005     (0)  
   Fe(OH)3-        0.000e+00   0.000e+00   -42.367   -42.449    -0.082     (0)  
Fe(3)         7.534e-25
   FeSO4+          6.059e-25   5.012e-25   -24.218   -24.300    -0.082     (0)  
   Fe(SO4)2-       8.816e-26   7.257e-26   -25.055   -25.139    -0.085     (0)  
   Fe+3            5.381e-26   1.316e-26   -25.269   -25.881    -0.612     (0)  
   FeOH+2          5.557e-27   2.602e-27   -26.255   -26.585    -0.330     (0)  
   Fe(OH)2+        3.178e-29   2.639e-29   -28.498   -28.579    -0.081     (0)  
   Fe(OH)3         9.392e-36   9.497e-36   -35.027   -35.022     0.005     (0)  
   Fe(OH)4-        0.000e+00   0.000e+00   -41.456   -41.536    -0.081     (0)  
   Fe2(OH)2+4      0.000e+00   0.000e+00   -50.387   -51.739    -1.352     (0)  
   Fe3(OH)4+5      0.000e+00   0.000e+00   -75.885   -77.998    -2.113     (0)  
H(0)          1.134e-12
   H2              5.671e-13   5.735e-13   -12.246   -12.241     0.005     (0)  
O(0)          0.000e+00
   O2              0.000e+00   0.000e+00   -67.904   -67.899     0.005     (0)  
S(-2)         8.350e-02
   H2S             8.350e-02   8.443e-02    -1.078    -1.073     0.005     (0)  
   HS-             3.644e-07   2.965e-07    -6.438    -6.528    -0.090     (0)  
   S5-2            5.039e-15   2.314e-15   -14.298   -14.636    -0.338     (0)  
   S4-2            2.940e-15   1.350e-15   -14.532   -14.870    -0.338     (0)  
   S6-2            2.608e-15   1.198e-15   -14.584   -14.922    -0.338     (0)  
   S-2             2.349e-18   1.100e-18   -17.629   -17.959    -0.330     (0)  
   S3-2            1.036e-18   4.757e-19   -17.985   -18.323    -0.338     (0)  
   S2-2            5.880e-20   2.700e-20   -19.231   -19.569    -0.338     (0)  
   Fe(HS)2         9.594e-21   9.701e-21   -20.018   -20.013     0.005     (0)  
   Fe(HS)3-        3.806e-25   3.133e-25   -24.420   -24.504    -0.085     (0)  
S(6)          2.783e-02
   HSO4-           1.758e-02   1.447e-02    -1.755    -1.840    -0.085     (0)  
   SO4-2           1.025e-02   4.579e-03    -1.989    -2.339    -0.350     (0)  
   FeSO4           9.969e-17   1.008e-16   -16.001   -15.997     0.005     (0)  
   FeSO4+          6.059e-25   5.012e-25   -24.218   -24.300    -0.082     (0)  
   Fe(SO4)2-       8.816e-26   7.257e-26   -25.055   -25.139    -0.085     (0)  

------------------------------Saturation indices-------------------------------

  Phase               SI** log IAP   log K(298 K,   1 atm)

  Fe2(SO4)3       -62.36    -58.78    3.58  Fe2(SO4)3
  Fe3(OH)8        -76.00    -55.78   20.22  Fe3(OH)8
  Ferrihydrite    -26.31    -21.42    4.89  Fe(OH)3
  FeS(ppt)        -17.03    -20.95   -3.92  FeS
  Goethite        -21.92    -21.42    0.50  FeOOH
  Greigite        -43.77    -58.62  -14.85  Fe3S4
  Hematite        -38.83    -42.84   -4.01  Fe2O3
  Jarosite-H      -62.79    -74.89  -12.10  (H3O)Fe3(SO4)2(OH)6
  Lepidocrocite   -22.79    -21.42    1.37  FeOOH
  Mackinawite     -18.86    -14.01    4.85  FeS
  Maghemite       -49.23    -42.84    6.39  Fe2O3
  Magnetite       -59.51    -55.78    3.74  Fe3O4
  Melanterite     -15.78    -18.25   -2.47  FeSO4:7H2O
  O2(g)           -64.94     18.18   83.12  O2
  pe_fix           -3.06     -3.06    0.00  e-
  pH_fix           -1.49     -1.49    0.00  H+
  Pyrite           -0.00    -16.72  -16.72  FeS2
  Pyrrhotite      -17.75    -14.01    3.74  FeS
  Sulfur            3.19      1.08   -2.11  S

**For a gas, SI = log10(fugacity). Fugacity = pressure * phi / 1 atm.
  For ideal gases, phi = 1.

------------------
End of simulation.
------------------

------------------------------------
Reading input data for simulation 7.
------------------------------------

-------------------------------
End of Run after 1.608 Seconds.
-------------------------------

