   Input file: C:\Users\jt2020\OneDrive - Imperial College London\Data\Thermodynamics\Thermodynamics\Phreeq\Reaction Progress\All models with pyrrhotite\Fe loss\Fe loss O2 Reaction progress unfixed.pqi
  Output file: C:\Users\jt2020\OneDrive - Imperial College London\Data\Thermodynamics\Thermodynamics\Phreeq\Reaction Progress\All models with pyrrhotite\Fe loss\Fe loss O2 Reaction progress unfixed.pqo
Database file: C:\Users\jt2020\OneDrive - Imperial College London\Data\Thermodynamics\Thermodynamics\Phreeq\Reaction Progress\All models with pyrrhotite\Database\llnlpyrrminteq.dat

------------------
Reading data base.
------------------

	SOLUTION_MASTER_SPECIES
	SOLUTION_SPECIES
	SOLUTION_SPECIES
	PHASES
	SURFACE_MASTER_SPECIES
	SURFACE_SPECIES
	END
------------------------------------
Reading input data for simulation 1.
------------------------------------

	DATABASE C:\Users\jt2020\OneDrive - Imperial College London\Data\Thermodynamics\Thermodynamics\Phreeq\Reaction Progress\All models with pyrrhotite\Database\llnlpyrrminteq.dat
	TITLE Fe dom acidic
	SOLUTION 1  PURE WATER
	            pH    6 charge
	          temp   25.0
	           pe     2.53
	PHASES
	       pH_fix
	                H + = H +
	                log_k = 0.0
	       pe_fix
	                e- = e-
	                log_k 0.0
	        Mackinawite
	                FeS + 2H+ = Fe+2 + H2S
	                log_k     4.850
	                delta_h        -8.901 kcal
	        Greigite
	                Fe3S4 + Fe+2 + H2O = 4Mackinawite(s) + 0.5O2 + 2H+
	                log_k   -48.0203
	                delta_h   105.6595  kcal
	        Pyrrhotite
	                FeS + 2H+ = Fe+2 + H2S
	                log_k     3.74177
	                delta_h        -7.977 kcal
	        Pyrite
	                FeS2 + 0.5Fe+2 + 0.5H2 = 0.5Greigite(s) + H+
	                log_k          -9.2972
	                delta_h        0.6282    kcal
	        NaNO3
	                NaNO3 = Na+ + NO3-
	                log_K -20
	        NaCl
	                NaCl = Cl- + Na+
	                log_k     -20
	END
-----
TITLE
-----

 Fe dom acidic

-------------------------------------------
Beginning of initial solution calculations.
-------------------------------------------

Initial solution 1.	PURE WATER

-----------------------------Solution composition------------------------------

	Elements           Molality       Moles

	Pure water     

----------------------------Description of solution----------------------------

                                       pH  =   6.999      Charge balance
                                       pe  =   2.530    
                        Activity of water  =   1.000
                 Ionic strength (mol/kgw)  =   1.003e-07
                       Mass of water (kg)  =   1.000e+00
                 Total alkalinity (eq/kg)  =   4.300e-16
                         Temperature (°C)  =  25.00
                  Electrical balance (eq)  =  -4.300e-16
 Percent error, 100*(Cat-|An|)/(Cat+|An|)  =  -0.00
                               Iterations  =   5
                                  Total H  = 1.110124e+02
                                  Total O  = 5.550622e+01

----------------------------Distribution of species----------------------------

                                               Log       Log       Log    mole V
   Species          Molality    Activity  Molality  Activity     Gamma    cm³/mol

   OH-             1.003e-07   1.002e-07    -6.999    -6.999    -0.000     (0)  
   H+              1.003e-07   1.002e-07    -6.999    -6.999    -0.000      0.00
   H2O             5.551e+01   1.000e+00     1.744    -0.000     0.000     18.07
H(0)          1.239e-22
   H2              6.194e-23   6.194e-23   -22.208   -22.208     0.000     (0)  
O(0)          0.000e+00
   O2              0.000e+00   0.000e+00   -47.964   -47.964     0.000     (0)  

------------------------------Saturation indices-------------------------------

  Phase               SI** log IAP   log K(298 K,   1 atm)

  O2(g)           -45.00     38.12   83.12  O2
  pe_fix           -2.53     -2.53    0.00  e-
  pH_fix           -7.00     -7.00    0.00  H+

**For a gas, SI = log10(fugacity). Fugacity = pressure * phi / 1 atm.
  For ideal gases, phi = 1.

------------------
End of simulation.
------------------

------------------------------------
Reading input data for simulation 2.
------------------------------------

	INCREMENTAL_REACTIONS
	REACTION
	Fe3S1 1
	10*1e-12 10*1e-11 10*1e-10 10*1e-9 10*1e-8 10*1e-7 10*1e-6 10*1e-5 10*1e-4  10*1e-3  10*1e-2 mol
	USE solution 1
	EQUILIBRIUM_PHASES 1
	        Mackinawite     0.0     0.0
	        Greigite        0.0     0.0
	        Pyrite          0.0     0.0
	        Pyrrhotite      0.0     0.0
	USER_GRAPH 1 Simulation 6
	    -headings               Pyrite Greigite Mackinawite
	    -axis_titles            "Fe and S added, Log moles" "Mineral, moles"
	    -chart_title            "Pyrite pathway in an iron dominant system with Fe loss"
	    -initial_solutions      false
	    -connect_simulations    false
	    -axis_scale y_axis      auto auto auto auto Log
	    -axis_scale sy_axis	    auto auto auto auto Log
	    -plot_concentration_vs  x
	  -start
	 5 PUT(GET(1) + RXN, 1)
	  20 PLOT_XY log10(GET(1)), EQUI("Pyrite") color = Green, line_w = 0,   	symbol = Plus, symbol_size = 5, y_axis = 2
	  30 PLOT_XY log10(GET(1)), EQUI("Greigite") color = Blue, line_w = 0,   	symbol = Plus, symbol_size = 5, y_axis = 2
	  40 PLOT_XY log10(GET(1)), EQUI("Mackinawite") color = Cyan, line_w = 0,   	symbol = Plus, symbol_size = 5, y_axis = 2
	  50 PLOT_XY log10(GET(1)), EQUI("Pyrrhotite") color = Red, line_w = 0,   	symbol = Plus, symbol_size = 5, y_axis = 2
	  -end
	    -active                 true
	SELECTED_OUTPUT
	    file                 Fe loss Fe dominated OXIC pH 6 unbuffered.csv
	    saturation_indices   Mackinawite  Greigite  Pyrite Pyrrhotite
	    reaction             
	    totals               Fe S
	    equilibrium_phases   Mackinawite  Greigite  Pyrite Pyrrhotite
	END
-----------------------------------------
Beginning of batch-reaction calculations.
-----------------------------------------

Reaction step 1.

Using solution 1.	PURE WATER
Using pure phase assemblage 1.	
Using reaction 1.	

Reaction 1.	

	  1.000e-12 moles of the following reaction have been added:

	                 Relative
	Reactant            moles

	Fe3S1                1.00000

	                 Relative
	Element             moles
	Fe                   3.00000
	S                    1.00000

-------------------------------Phase assemblage--------------------------------

                                                      Moles in assemblage
Phase               SI  log IAP  log K(T, P)   Initial       Final       Delta

Greigite         45.55    -2.47    -48.02    0.000e+00           0   0.000e+00
Mackinawite     -20.06   -15.21      4.85    0.000e+00           0   0.000e+00
Pyrite           15.06     5.76     -9.30    0.000e+00           0   0.000e+00
Pyrrhotite      -18.95   -15.21      3.74    0.000e+00           0   0.000e+00

-----------------------------Solution composition------------------------------

	Elements           Molality       Moles

	Fe                3.000e-12   3.000e-12
	S                 1.000e-12   1.000e-12

----------------------------Description of solution----------------------------

                                       pH  =   6.999      Charge balance
                                       pe  =  -2.963      Adjusted to redox equilibrium
                        Activity of water  =   1.000
                 Ionic strength (mol/kgw)  =   1.003e-07
                       Mass of water (kg)  =   1.000e+00
                 Total alkalinity (eq/kg)  =   4.000e-12
                         Temperature (°C)  =  25.00
                  Electrical balance (eq)  =  -4.300e-16
 Percent error, 100*(Cat-|An|)/(Cat+|An|)  =  -0.00
                               Iterations  =  16
                                  Total H  = 1.110124e+02
                                  Total O  = 5.550622e+01

----------------------------Distribution of species----------------------------

                                               Log       Log       Log    mole V
   Species          Molality    Activity  Molality  Activity     Gamma    cm³/mol

   OH-             1.003e-07   1.002e-07    -6.999    -6.999    -0.000     (0)  
   H+              1.003e-07   1.002e-07    -6.999    -6.999    -0.000      0.00
   H2O             5.551e+01   1.000e+00     1.744    -0.000     0.000     18.07
Fe(2)         3.000e-12
   Fe+2            2.991e-12   2.986e-12   -11.524   -11.525    -0.001     (0)  
   FeOH+           9.425e-15   9.421e-15   -14.026   -14.026    -0.000     (0)  
   Fe(OH)2         8.001e-19   8.001e-19   -18.097   -18.097     0.000     (0)  
   FeSO4           5.302e-22   5.302e-22   -21.276   -21.276     0.000     (0)  
   Fe(OH)3-        2.967e-22   2.966e-22   -21.528   -21.528    -0.000     (0)  
   Fe(HS)2         1.497e-38   1.497e-38   -37.825   -37.825     0.000     (0)  
   Fe(HS)3-        0.000e+00   0.000e+00   -53.413   -53.413    -0.000     (0)  
Fe(3)         7.256e-20
   Fe(OH)2+        6.426e-20   6.424e-20   -19.192   -19.192    -0.000     (0)  
   Fe(OH)3         7.530e-21   7.530e-21   -20.123   -20.123     0.000     (0)  
   Fe(OH)4-        7.515e-22   7.513e-22   -21.124   -21.124    -0.000     (0)  
   FeOH+2          1.947e-23   1.944e-23   -22.711   -22.711    -0.001     (0)  
   Fe+3            3.028e-28   3.018e-28   -27.519   -27.520    -0.001     (0)  
   FeSO4+          2.508e-36   2.507e-36   -35.601   -35.601    -0.000     (0)  
   Fe2(OH)2+4      0.000e+00   0.000e+00   -43.990   -43.992    -0.003     (0)  
   Fe(SO4)2-       0.000e+00   0.000e+00   -46.101   -46.102    -0.000     (0)  
   Fe3(OH)4+5      0.000e+00   0.000e+00   -60.861   -60.865    -0.004     (0)  
H(0)          1.201e-11
   H2              6.007e-12   6.007e-12   -11.221   -11.221     0.000     (0)  
O(0)          0.000e+00
   O2              0.000e+00   0.000e+00   -69.937   -69.937     0.000     (0)  
S(-2)         4.514e-18
   HS-             2.373e-18   2.372e-18   -17.625   -17.625    -0.000     (0)  
   H2S             2.078e-18   2.078e-18   -17.682   -17.682     0.000     (0)  
   S5-2            6.022e-21   6.013e-21   -20.220   -20.221    -0.001     (0)  
   S4-2            3.513e-21   3.508e-21   -20.454   -20.455    -0.001     (0)  
   S6-2            3.117e-21   3.112e-21   -20.506   -20.507    -0.001     (0)  
   S-2             2.862e-24   2.858e-24   -23.543   -23.544    -0.001     (0)  
   S3-2            1.238e-24   1.236e-24   -23.907   -23.908    -0.001     (0)  
   S2-2            7.026e-26   7.016e-26   -25.153   -25.154    -0.001     (0)  
   Fe(HS)2         1.497e-38   1.497e-38   -37.825   -37.825     0.000     (0)  
   Fe(HS)3-        0.000e+00   0.000e+00   -53.413   -53.413    -0.000     (0)  
S(6)          1.000e-12
   SO4-2           1.000e-12   9.985e-13   -12.000   -12.001    -0.001     (0)  
   HSO4-           9.715e-18   9.711e-18   -17.013   -17.013    -0.000     (0)  
   FeSO4           5.302e-22   5.302e-22   -21.276   -21.276     0.000     (0)  
   FeSO4+          2.508e-36   2.507e-36   -35.601   -35.601    -0.000     (0)  
   Fe(SO4)2-       0.000e+00   0.000e+00   -46.101   -46.102    -0.000     (0)  

------------------------------Saturation indices-------------------------------

  Phase               SI** log IAP   log K(298 K,   1 atm)

  Fe2(SO4)3       -94.62    -91.04    3.58  Fe2(SO4)3
  Fe3(OH)8        -30.80    -10.57   20.22  Fe3(OH)8
  Ferrihydrite    -11.41     -6.52    4.89  Fe(OH)3
  FeS(ppt)        -18.24    -22.15   -3.92  FeS
  Goethite         -7.02     -6.52    0.50  FeOOH
  Greigite        -69.66   -126.05  -56.39  Fe3S4
  Hematite         -9.04    -13.05   -4.01  Fe2O3
  Jarosite-H      -59.47    -71.57  -12.10  (H3O)Fe3(SO4)2(OH)6
  Lepidocrocite    -7.89     -6.52    1.37  FeOOH
  Mackinawite     -20.06    -15.21    4.85  FeS
  Maghemite       -19.43    -13.05    6.39  Fe2O3
  Magnetite       -14.31    -10.57    3.74  Fe3O4
  Melanterite     -21.06    -23.53   -2.47  FeSO4:7H2O
  O2(g)           -66.98     16.14   83.12  O2
  pe_fix            2.96      2.96    0.00  e-
  pH_fix           -7.00     -7.00    0.00  H+
  Pyrite          -21.16    -58.65  -37.49  FeS2
  Pyrrhotite      -18.95    -15.21    3.74  FeS
  Sulfur          -14.44    -16.55   -2.11  S

**For a gas, SI = log10(fugacity). Fugacity = pressure * phi / 1 atm.
  For ideal gases, phi = 1.

Reaction step 2.

Using solution 1.	PURE WATER
Using pure phase assemblage 1.	
Using reaction 1.	

Reaction 1.	

	  1.000e-12 moles of the following reaction have been added:

	                 Relative
	Reactant            moles

	Fe3S1                1.00000

	                 Relative
	Element             moles
	Fe                   3.00000
	S                    1.00000

-------------------------------Phase assemblage--------------------------------

                                                      Moles in assemblage
Phase               SI  log IAP  log K(T, P)   Initial       Final       Delta

Greigite         45.25    -2.77    -48.02    0.000e+00           0   0.000e+00
Mackinawite     -18.25   -13.40      4.85    0.000e+00           0   0.000e+00
Pyrite           14.91     5.61     -9.30    0.000e+00           0   0.000e+00
Pyrrhotite      -17.15   -13.40      3.74    0.000e+00           0   0.000e+00

-----------------------------Solution composition------------------------------

	Elements           Molality       Moles

	Fe                6.000e-12   6.000e-12
	S                 2.000e-12   2.000e-12

----------------------------Description of solution----------------------------

                                       pH  =   6.999      Charge balance
                                       pe  =  -3.114      Adjusted to redox equilibrium
                        Activity of water  =   1.000
                 Ionic strength (mol/kgw)  =   1.003e-07
                       Mass of water (kg)  =   1.000e+00
                 Total alkalinity (eq/kg)  =   8.001e-12
                         Temperature (°C)  =  25.00
                  Electrical balance (eq)  =  -4.300e-16
 Percent error, 100*(Cat-|An|)/(Cat+|An|)  =  -0.00
                               Iterations  =   5
                                  Total H  = 1.110124e+02
                                  Total O  = 5.550622e+01

----------------------------Distribution of species----------------------------

                                               Log       Log       Log    mole V
   Species          Molality    Activity  Molality  Activity     Gamma    cm³/mol

   OH-             1.003e-07   1.002e-07    -6.999    -6.999    -0.000     (0)  
   H+              1.003e-07   1.002e-07    -6.999    -6.999    -0.000      0.00
   H2O             5.551e+01   1.000e+00     1.744    -0.000     0.000     18.07
Fe(2)         6.000e-12
   Fe+2            5.981e-12   5.972e-12   -11.223   -11.224    -0.001     (0)  
   FeOH+           1.885e-14   1.884e-14   -13.725   -13.725    -0.000     (0)  
   Fe(OH)2         1.600e-18   1.600e-18   -17.796   -17.796     0.000     (0)  
   FeSO4           2.121e-21   2.121e-21   -20.674   -20.674     0.000     (0)  
   Fe(OH)3-        5.934e-22   5.932e-22   -21.227   -21.227    -0.000     (0)  
   Fe(HS)2         3.049e-35   3.049e-35   -34.516   -34.516     0.000     (0)  
   Fe(HS)3-        0.000e+00   0.000e+00   -48.600   -48.600    -0.000     (0)  
Fe(3)         1.027e-19
   Fe(OH)2+        9.091e-20   9.087e-20   -19.041   -19.042    -0.000     (0)  
   Fe(OH)3         1.065e-20   1.065e-20   -19.973   -19.973     0.000     (0)  
   Fe(OH)4-        1.063e-21   1.063e-21   -20.973   -20.974    -0.000     (0)  
   FeOH+2          2.755e-23   2.751e-23   -22.560   -22.561    -0.001     (0)  
   Fe+3            4.284e-28   4.270e-28   -27.368   -27.370    -0.001     (0)  
   FeSO4+          7.094e-36   7.092e-36   -35.149   -35.149    -0.000     (0)  
   Fe2(OH)2+4      0.000e+00   0.000e+00   -43.689   -43.691    -0.003     (0)  
   Fe(SO4)2-       0.000e+00   0.000e+00   -45.349   -45.349    -0.000     (0)  
   Fe3(OH)4+5      0.000e+00   0.000e+00   -60.409   -60.413    -0.004     (0)  
H(0)          2.401e-11
   H2              1.201e-11   1.201e-11   -10.921   -10.921     0.000     (0)  
O(0)          0.000e+00
   O2              0.000e+00   0.000e+00   -70.539   -70.539     0.000     (0)  
S(-2)         1.441e-16
   HS-             7.572e-17   7.569e-17   -16.121   -16.121    -0.000     (0)  
   H2S             6.633e-17   6.633e-17   -16.178   -16.178     0.000     (0)  
   S5-2            1.922e-19   1.919e-19   -18.716   -18.717    -0.001     (0)  
   S4-2            1.121e-19   1.120e-19   -18.950   -18.951    -0.001     (0)  
   S6-2            9.947e-20   9.932e-20   -19.002   -19.003    -0.001     (0)  
   S-2             9.135e-23   9.121e-23   -22.039   -22.040    -0.001     (0)  
   S3-2            3.951e-23   3.945e-23   -22.403   -22.404    -0.001     (0)  
   S2-2            2.242e-24   2.239e-24   -23.649   -23.650    -0.001     (0)  
   Fe(HS)2         3.049e-35   3.049e-35   -34.516   -34.516     0.000     (0)  
   Fe(HS)3-        0.000e+00   0.000e+00   -48.600   -48.600    -0.000     (0)  
S(6)          2.000e-12
   SO4-2           2.000e-12   1.997e-12   -11.699   -11.700    -0.001     (0)  
   HSO4-           1.943e-17   1.942e-17   -16.712   -16.712    -0.000     (0)  
   FeSO4           2.121e-21   2.121e-21   -20.674   -20.674     0.000     (0)  
   FeSO4+          7.094e-36   7.092e-36   -35.149   -35.149    -0.000     (0)  
   Fe(SO4)2-       0.000e+00   0.000e+00   -45.349   -45.349    -0.000     (0)  

------------------------------Saturation indices-------------------------------

  Phase               SI** log IAP   log K(298 K,   1 atm)

  Fe2(SO4)3       -93.42    -89.84    3.58  Fe2(SO4)3
  Fe3(OH)8        -30.19     -9.97   20.22  Fe3(OH)8
  Ferrihydrite    -11.26     -6.37    4.89  Fe(OH)3
  FeS(ppt)        -16.43    -20.35   -3.92  FeS
  Goethite         -6.87     -6.37    0.50  FeOOH
  Greigite        -63.04   -119.43  -56.39  Fe3S4
  Hematite         -8.74    -12.75   -4.01  Fe2O3
  Jarosite-H      -58.41    -70.51  -12.10  (H3O)Fe3(SO4)2(OH)6
  Lepidocrocite    -7.74     -6.37    1.37  FeOOH
  Mackinawite     -18.25    -13.40    4.85  FeS
  Maghemite       -19.13    -12.75    6.39  Fe2O3
  Magnetite       -13.71     -9.97    3.74  Fe3O4
  Melanterite     -20.45    -22.92   -2.47  FeSO4:7H2O
  O2(g)           -67.58     15.54   83.12  O2
  pe_fix            3.11      3.11    0.00  e-
  pH_fix           -7.00     -7.00    0.00  H+
  Pyrite          -18.15    -55.64  -37.49  FeS2
  Pyrrhotite      -17.15    -13.40    3.74  FeS
  Sulfur          -13.24    -15.35   -2.11  S

**For a gas, SI = log10(fugacity). Fugacity = pressure * phi / 1 atm.
  For ideal gases, phi = 1.

Reaction step 3.

Using solution 1.	PURE WATER
Using pure phase assemblage 1.	
Using reaction 1.	

Reaction 1.	

	  1.000e-12 moles of the following reaction have been added:

	                 Relative
	Reactant            moles

	Fe3S1                1.00000

	                 Relative
	Element             moles
	Fe                   3.00000
	S                    1.00000

-------------------------------Phase assemblage--------------------------------

                                                      Moles in assemblage
Phase               SI  log IAP  log K(T, P)   Initial       Final       Delta

Greigite         45.07    -2.95    -48.02    0.000e+00           0   0.000e+00
Mackinawite     -17.20   -12.35      4.85    0.000e+00           0   0.000e+00
Pyrite           14.82     5.52     -9.30    0.000e+00           0   0.000e+00
Pyrrhotite      -16.09   -12.35      3.74    0.000e+00           0   0.000e+00

-----------------------------Solution composition------------------------------

	Elements           Molality       Moles

	Fe                9.000e-12   9.000e-12
	S                 3.000e-12   3.000e-12

----------------------------Description of solution----------------------------

                                       pH  =   6.999      Charge balance
                                       pe  =  -3.202      Adjusted to redox equilibrium
                        Activity of water  =   1.000
                 Ionic strength (mol/kgw)  =   1.003e-07
                       Mass of water (kg)  =   1.000e+00
                 Total alkalinity (eq/kg)  =   1.200e-11
                         Temperature (°C)  =  25.00
                  Electrical balance (eq)  =  -4.300e-16
 Percent error, 100*(Cat-|An|)/(Cat+|An|)  =  -0.00
                               Iterations  =   4
                                  Total H  = 1.110124e+02
                                  Total O  = 5.550622e+01

----------------------------Distribution of species----------------------------

                                               Log       Log       Log    mole V
   Species          Molality    Activity  Molality  Activity     Gamma    cm³/mol

   OH-             1.003e-07   1.002e-07    -6.999    -6.999    -0.000     (0)  
   H+              1.003e-07   1.002e-07    -6.999    -6.999    -0.000      0.00
   H2O             5.551e+01   1.000e+00     1.744    -0.000     0.000     18.07
Fe(2)         9.000e-12
   Fe+2            8.972e-12   8.958e-12   -11.047   -11.048    -0.001     (0)  
   FeOH+           2.828e-14   2.827e-14   -13.549   -13.549    -0.000     (0)  
   Fe(OH)2         2.400e-18   2.400e-18   -17.620   -17.620     0.000     (0)  
   FeSO4           4.770e-21   4.770e-21   -20.321   -20.321     0.000     (0)  
   Fe(OH)3-        8.902e-22   8.898e-22   -21.051   -21.051    -0.000     (0)  
   Fe(HS)2         2.628e-33   2.628e-33   -32.580   -32.580     0.000     (0)  
   Fe(HS)3-        0.000e+00   0.000e+00   -45.785   -45.785    -0.000     (0)  
Fe(3)         1.258e-19
   Fe(OH)2+        1.114e-19   1.113e-19   -18.953   -18.953    -0.000     (0)  
   Fe(OH)3         1.305e-20   1.305e-20   -19.884   -19.884     0.000     (0)  
   Fe(OH)4-        1.303e-21   1.302e-21   -20.885   -20.885    -0.000     (0)  
   FeOH+2          3.374e-23   3.369e-23   -22.472   -22.472    -0.001     (0)  
   Fe+3            5.248e-28   5.230e-28   -27.280   -27.281    -0.001     (0)  
   FeSO4+          1.303e-35   1.303e-35   -34.885   -34.885    -0.000     (0)  
   Fe2(OH)2+4      0.000e+00   0.000e+00   -43.512   -43.515    -0.003     (0)  
   Fe(SO4)2-       0.000e+00   0.000e+00   -44.909   -44.909    -0.000     (0)  
   Fe3(OH)4+5      0.000e+00   0.000e+00   -60.144   -60.148    -0.004     (0)  
H(0)          3.601e-11
   H2              1.800e-11   1.800e-11   -10.745   -10.745     0.000     (0)  
O(0)          0.000e+00
   O2              0.000e+00   0.000e+00   -70.891   -70.891     0.000     (0)  
S(-2)         1.092e-15
   HS-             5.739e-16   5.737e-16   -15.241   -15.241    -0.000     (0)  
   H2S             5.027e-16   5.027e-16   -15.299   -15.299     0.000     (0)  
   S5-2            1.457e-18   1.454e-18   -17.837   -17.837    -0.001     (0)  
   S4-2            8.498e-19   8.486e-19   -18.071   -18.071    -0.001     (0)  
   S6-2            7.539e-19   7.528e-19   -18.123   -18.123    -0.001     (0)  
   S-2             6.924e-22   6.913e-22   -21.160   -21.160    -0.001     (0)  
   S3-2            2.995e-22   2.990e-22   -21.524   -21.524    -0.001     (0)  
   S2-2            1.700e-23   1.697e-23   -22.770   -22.770    -0.001     (0)  
   Fe(HS)2         2.628e-33   2.628e-33   -32.580   -32.580     0.000     (0)  
   Fe(HS)3-        0.000e+00   0.000e+00   -45.785   -45.785    -0.000     (0)  
S(6)          2.999e-12
   SO4-2           2.999e-12   2.994e-12   -11.523   -11.524    -0.001     (0)  
   HSO4-           2.913e-17   2.912e-17   -16.536   -16.536    -0.000     (0)  
   FeSO4           4.770e-21   4.770e-21   -20.321   -20.321     0.000     (0)  
   FeSO4+          1.303e-35   1.303e-35   -34.885   -34.885    -0.000     (0)  
   Fe(SO4)2-       0.000e+00   0.000e+00   -44.909   -44.909    -0.000     (0)  

------------------------------Saturation indices-------------------------------

  Phase               SI** log IAP   log K(298 K,   1 atm)

  Fe2(SO4)3       -92.71    -89.13    3.58  Fe2(SO4)3
  Fe3(OH)8        -29.84     -9.62   20.22  Fe3(OH)8
  Ferrihydrite    -11.18     -6.28    4.89  Fe(OH)3
  FeS(ppt)        -15.38    -19.29   -3.92  FeS
  Goethite         -6.78     -6.28    0.50  FeOOH
  Greigite        -59.17   -115.56  -56.39  Fe3S4
  Hematite         -8.56    -12.57   -4.01  Fe2O3
  Jarosite-H      -57.80    -69.90  -12.10  (H3O)Fe3(SO4)2(OH)6
  Lepidocrocite    -7.66     -6.28    1.37  FeOOH
  Mackinawite     -17.20    -12.35    4.85  FeS
  Maghemite       -18.95    -12.57    6.39  Fe2O3
  Magnetite       -13.36     -9.62    3.74  Fe3O4
  Melanterite     -20.10    -22.57   -2.47  FeSO4:7H2O
  O2(g)           -67.93     15.19   83.12  O2
  pe_fix            3.20      3.20    0.00  e-
  pH_fix           -7.00     -7.00    0.00  H+
  Pyrite          -16.39    -53.88  -37.49  FeS2
  Pyrrhotite      -16.09    -12.35    3.74  FeS
  Sulfur          -12.54    -14.65   -2.11  S

**For a gas, SI = log10(fugacity). Fugacity = pressure * phi / 1 atm.
  For ideal gases, phi = 1.

Reaction step 4.

Using solution 1.	PURE WATER
Using pure phase assemblage 1.	
Using reaction 1.	

Reaction 1.	

	  1.000e-12 moles of the following reaction have been added:

	                 Relative
	Reactant            moles

	Fe3S1                1.00000

	                 Relative
	Element             moles
	Fe                   3.00000
	S                    1.00000

-------------------------------Phase assemblage--------------------------------

                                                      Moles in assemblage
Phase               SI  log IAP  log K(T, P)   Initial       Final       Delta

Greigite         44.95    -3.08    -48.02    0.000e+00           0   0.000e+00
Mackinawite     -16.45   -11.60      4.85    0.000e+00           0   0.000e+00
Pyrite           14.76     5.46     -9.30    0.000e+00           0   0.000e+00
Pyrrhotite      -15.34   -11.60      3.74    0.000e+00           0   0.000e+00

-----------------------------Solution composition------------------------------

	Elements           Molality       Moles

	Fe                1.200e-11   1.200e-11
	S                 4.000e-12   4.000e-12

----------------------------Description of solution----------------------------

                                       pH  =   6.999      Charge balance
                                       pe  =  -3.264      Adjusted to redox equilibrium
                        Activity of water  =   1.000
                 Ionic strength (mol/kgw)  =   1.003e-07
                       Mass of water (kg)  =   1.000e+00
                 Total alkalinity (eq/kg)  =   1.601e-11
                         Temperature (°C)  =  25.00
                  Electrical balance (eq)  =  -4.300e-16
 Percent error, 100*(Cat-|An|)/(Cat+|An|)  =  -0.00
                               Iterations  =   4
                                  Total H  = 1.110124e+02
                                  Total O  = 5.550622e+01

----------------------------Distribution of species----------------------------

                                               Log       Log       Log    mole V
   Species          Molality    Activity  Molality  Activity     Gamma    cm³/mol

   OH-             1.003e-07   1.002e-07    -6.999    -6.999    -0.000     (0)  
   H+              1.003e-07   1.002e-07    -6.999    -6.999    -0.000      0.00
   H2O             5.551e+01   1.000e+00     1.744    -0.000     0.000     18.07
Fe(2)         1.200e-11
   Fe+2            1.196e-11   1.194e-11   -10.922   -10.923    -0.001     (0)  
   FeOH+           3.770e-14   3.769e-14   -13.424   -13.424    -0.000     (0)  
   Fe(OH)2         3.201e-18   3.201e-18   -17.495   -17.495     0.000     (0)  
   FeSO4           8.474e-21   8.474e-21   -20.072   -20.072     0.000     (0)  
   Fe(OH)3-        1.187e-21   1.187e-21   -20.926   -20.926    -0.000     (0)  
   Fe(HS)2         6.166e-32   6.166e-32   -31.210   -31.210     0.000     (0)  
   Fe(HS)3-        0.000e+00   0.000e+00   -43.791   -43.792    -0.000     (0)  
Fe(3)         1.453e-19
   Fe(OH)2+        1.287e-19   1.286e-19   -18.891   -18.891    -0.000     (0)  
   Fe(OH)3         1.508e-20   1.508e-20   -19.822   -19.822     0.000     (0)  
   Fe(OH)4-        1.505e-21   1.504e-21   -20.823   -20.823    -0.000     (0)  
   FeOH+2          3.898e-23   3.892e-23   -22.409   -22.410    -0.001     (0)  
   Fe+3            6.062e-28   6.042e-28   -27.217   -27.219    -0.001     (0)  
   FeSO4+          2.006e-35   2.005e-35   -34.698   -34.698    -0.000     (0)  
   Fe2(OH)2+4      0.000e+00   0.000e+00   -43.387   -43.390    -0.003     (0)  
   Fe(SO4)2-       0.000e+00   0.000e+00   -44.597   -44.597    -0.000     (0)  
   Fe3(OH)4+5      0.000e+00   0.000e+00   -59.956   -59.960    -0.004     (0)  
H(0)          4.796e-11
   H2              2.398e-11   2.398e-11   -10.620   -10.620     0.000     (0)  
O(0)          0.000e+00
   O2              0.000e+00   0.000e+00   -71.140   -71.140     0.000     (0)  
S(-2)         4.580e-15
   HS-             2.408e-15   2.407e-15   -14.618   -14.619    -0.000     (0)  
   H2S             2.109e-15   2.109e-15   -14.676   -14.676     0.000     (0)  
   S5-2            6.111e-18   6.102e-18   -17.214   -17.215    -0.001     (0)  
   S4-2            3.565e-18   3.560e-18   -17.448   -17.449    -0.001     (0)  
   S6-2            3.163e-18   3.158e-18   -17.500   -17.501    -0.001     (0)  
   S-2             2.905e-21   2.900e-21   -20.537   -20.538    -0.001     (0)  
   S3-2            1.256e-21   1.254e-21   -20.901   -20.902    -0.001     (0)  
   S2-2            7.130e-23   7.120e-23   -22.147   -22.148    -0.001     (0)  
   Fe(HS)2         6.166e-32   6.166e-32   -31.210   -31.210     0.000     (0)  
   Fe(HS)3-        0.000e+00   0.000e+00   -43.791   -43.792    -0.000     (0)  
S(6)          3.995e-12
   SO4-2           3.995e-12   3.989e-12   -11.398   -11.399    -0.001     (0)  
   HSO4-           3.881e-17   3.880e-17   -16.411   -16.411    -0.000     (0)  
   FeSO4           8.474e-21   8.474e-21   -20.072   -20.072     0.000     (0)  
   FeSO4+          2.006e-35   2.005e-35   -34.698   -34.698    -0.000     (0)  
   Fe(SO4)2-       0.000e+00   0.000e+00   -44.597   -44.597    -0.000     (0)  

------------------------------Saturation indices-------------------------------

  Phase               SI** log IAP   log K(298 K,   1 atm)

  Fe2(SO4)3       -92.21    -88.63    3.58  Fe2(SO4)3
  Fe3(OH)8        -29.59     -9.37   20.22  Fe3(OH)8
  Ferrihydrite    -11.11     -6.22    4.89  Fe(OH)3
  FeS(ppt)        -14.63    -18.54   -3.92  FeS
  Goethite         -6.72     -6.22    0.50  FeOOH
  Greigite        -56.43   -112.81  -56.39  Fe3S4
  Hematite         -8.44    -12.44   -4.01  Fe2O3
  Jarosite-H      -57.36    -69.46  -12.10  (H3O)Fe3(SO4)2(OH)6
  Lepidocrocite    -7.59     -6.22    1.37  FeOOH
  Mackinawite     -16.45    -11.60    4.85  FeS
  Maghemite       -18.83    -12.44    6.39  Fe2O3
  Magnetite       -13.11     -9.37    3.74  Fe3O4
  Melanterite     -19.85    -22.32   -2.47  FeSO4:7H2O
  O2(g)           -68.18     14.94   83.12  O2
  pe_fix            3.26      3.26    0.00  e-
  pH_fix           -7.00     -7.00    0.00  H+
  Pyrite          -15.14    -52.63  -37.49  FeS2
  Pyrrhotite      -15.34    -11.60    3.74  FeS
  Sulfur          -12.04    -14.15   -2.11  S

**For a gas, SI = log10(fugacity). Fugacity = pressure * phi / 1 atm.
  For ideal gases, phi = 1.

Reaction step 5.

Using solution 1.	PURE WATER
Using pure phase assemblage 1.	
Using reaction 1.	

Reaction 1.	

	  1.000e-12 moles of the following reaction have been added:

	                 Relative
	Reactant            moles

	Fe3S1                1.00000

	                 Relative
	Element             moles
	Fe                   3.00000
	S                    1.00000

-------------------------------Phase assemblage--------------------------------

                                                      Moles in assemblage
Phase               SI  log IAP  log K(T, P)   Initial       Final       Delta

Greigite         44.85    -3.17    -48.02    0.000e+00           0   0.000e+00
Mackinawite     -15.87   -11.02      4.85    0.000e+00           0   0.000e+00
Pyrite           14.71     5.41     -9.30    0.000e+00           0   0.000e+00
Pyrrhotite      -14.76   -11.02      3.74    0.000e+00           0   0.000e+00

-----------------------------Solution composition------------------------------

	Elements           Molality       Moles

	Fe                1.500e-11   1.500e-11
	S                 5.000e-12   5.000e-12

----------------------------Description of solution----------------------------

                                       pH  =   6.999      Charge balance
                                       pe  =  -3.312      Adjusted to redox equilibrium
                        Activity of water  =   1.000
                 Ionic strength (mol/kgw)  =   1.003e-07
                       Mass of water (kg)  =   1.000e+00
                 Total alkalinity (eq/kg)  =   2.003e-11
                         Temperature (°C)  =  25.00
                  Electrical balance (eq)  =  -4.289e-16
 Percent error, 100*(Cat-|An|)/(Cat+|An|)  =  -0.00
                               Iterations  =   3
                                  Total H  = 1.110124e+02
                                  Total O  = 5.550622e+01

----------------------------Distribution of species----------------------------

                                               Log       Log       Log    mole V
   Species          Molality    Activity  Molality  Activity     Gamma    cm³/mol

   OH-             1.003e-07   1.002e-07    -6.999    -6.999    -0.000     (0)  
   H+              1.003e-07   1.002e-07    -6.999    -6.999    -0.000      0.00
   H2O             5.551e+01   1.000e+00     1.744    -0.000     0.000     18.07
Fe(2)         1.500e-11
   Fe+2            1.495e-11   1.493e-11   -10.825   -10.826    -0.001     (0)  
   FeOH+           4.713e-14   4.711e-14   -13.327   -13.327    -0.000     (0)  
   Fe(OH)2         4.001e-18   4.001e-18   -17.398   -17.398     0.000     (0)  
   FeSO4           1.322e-20   1.322e-20   -19.879   -19.879     0.000     (0)  
   Fe(OH)3-        1.484e-21   1.483e-21   -20.829   -20.829    -0.000     (0)  
   Fe(HS)2         7.092e-31   7.092e-31   -30.149   -30.149     0.000     (0)  
   Fe(HS)3-        0.000e+00   0.000e+00   -42.249   -42.249    -0.000     (0)  
Fe(3)         1.625e-19
   Fe(OH)2+        1.439e-19   1.439e-19   -18.842   -18.842    -0.000     (0)  
   Fe(OH)3         1.687e-20   1.687e-20   -19.773   -19.773     0.000     (0)  
   Fe(OH)4-        1.683e-21   1.683e-21   -20.774   -20.774    -0.000     (0)  
   FeOH+2          4.361e-23   4.354e-23   -22.360   -22.361    -0.001     (0)  
   Fe+3            6.782e-28   6.759e-28   -27.169   -27.170    -0.001     (0)  
   FeSO4+          2.800e-35   2.799e-35   -34.553   -34.553    -0.000     (0)  
   Fe2(OH)2+4      0.000e+00   0.000e+00   -43.290   -43.292    -0.003     (0)  
   Fe(SO4)2-       0.000e+00   0.000e+00   -44.356   -44.356    -0.000     (0)  
   Fe3(OH)4+5      0.000e+00   0.000e+00   -59.810   -59.814    -0.004     (0)  
H(0)          5.989e-11
   H2              2.994e-11   2.994e-11   -10.524   -10.524     0.000     (0)  
O(0)          0.000e+00
   O2              0.000e+00   0.000e+00   -71.333   -71.333     0.000     (0)  
S(-2)         1.389e-14
   HS-             7.303e-15   7.301e-15   -14.136   -14.137    -0.000     (0)  
   H2S             6.397e-15   6.397e-15   -14.194   -14.194     0.000     (0)  
   S5-2            1.854e-17   1.851e-17   -16.732   -16.733    -0.001     (0)  
   S4-2            1.082e-17   1.080e-17   -16.966   -16.967    -0.001     (0)  
   S6-2            9.595e-18   9.581e-18   -17.018   -17.019    -0.001     (0)  
   S-2             8.811e-21   8.798e-21   -20.055   -20.056    -0.001     (0)  
   S3-2            3.811e-21   3.805e-21   -20.419   -20.420    -0.001     (0)  
   S2-2            2.163e-22   2.160e-22   -21.665   -21.666    -0.001     (0)  
   Fe(HS)2         7.092e-31   7.092e-31   -30.149   -30.149     0.000     (0)  
   Fe(HS)3-        0.000e+00   0.000e+00   -42.249   -42.249    -0.000     (0)  
S(6)          4.986e-12
   SO4-2           4.986e-12   4.979e-12   -11.302   -11.303    -0.001     (0)  
   HSO4-           4.844e-17   4.842e-17   -16.315   -16.315    -0.000     (0)  
   FeSO4           1.322e-20   1.322e-20   -19.879   -19.879     0.000     (0)  
   FeSO4+          2.800e-35   2.799e-35   -34.553   -34.553    -0.000     (0)  
   Fe(SO4)2-       0.000e+00   0.000e+00   -44.356   -44.356    -0.000     (0)  

------------------------------Saturation indices-------------------------------

  Phase               SI** log IAP   log K(298 K,   1 atm)

  Fe2(SO4)3       -91.83    -88.25    3.58  Fe2(SO4)3
  Fe3(OH)8        -29.40     -9.17   20.22  Fe3(OH)8
  Ferrihydrite    -11.06     -6.17    4.89  Fe(OH)3
  FeS(ppt)        -14.05    -17.96   -3.92  FeS
  Goethite         -6.67     -6.17    0.50  FeOOH
  Greigite        -54.31   -110.69  -56.39  Fe3S4
  Hematite         -8.34    -12.35   -4.01  Fe2O3
  Jarosite-H      -57.02    -69.12  -12.10  (H3O)Fe3(SO4)2(OH)6
  Lepidocrocite    -7.54     -6.17    1.37  FeOOH
  Mackinawite     -15.87    -11.02    4.85  FeS
  Maghemite       -18.73    -12.35    6.39  Fe2O3
  Magnetite       -12.91     -9.17    3.74  Fe3O4
  Melanterite     -19.66    -22.13   -2.47  FeSO4:7H2O
  O2(g)           -68.37     14.75   83.12  O2
  pe_fix            3.31      3.31    0.00  e-
  pH_fix           -7.00     -7.00    0.00  H+
  Pyrite          -14.18    -51.67  -37.49  FeS2
  Pyrrhotite      -14.76    -11.02    3.74  FeS
  Sulfur          -11.65    -13.76   -2.11  S

**For a gas, SI = log10(fugacity). Fugacity = pressure * phi / 1 atm.
  For ideal gases, phi = 1.

Reaction step 6.

Using solution 1.	PURE WATER
Using pure phase assemblage 1.	
Using reaction 1.	

Reaction 1.	

	  1.000e-12 moles of the following reaction have been added:

	                 Relative
	Reactant            moles

	Fe3S1                1.00000

	                 Relative
	Element             moles
	Fe                   3.00000
	S                    1.00000

-------------------------------Phase assemblage--------------------------------

                                                      Moles in assemblage
Phase               SI  log IAP  log K(T, P)   Initial       Final       Delta

Greigite         44.77    -3.25    -48.02    0.000e+00           0   0.000e+00
Mackinawite     -15.40   -10.55      4.85    0.000e+00           0   0.000e+00
Pyrite           14.67     5.37     -9.30    0.000e+00           0   0.000e+00
Pyrrhotite      -14.29   -10.55      3.74    0.000e+00           0   0.000e+00

-----------------------------Solution composition------------------------------

	Elements           Molality       Moles

	Fe                1.800e-11   1.800e-11
	S                 6.000e-12   6.000e-12

----------------------------Description of solution----------------------------

                                       pH  =   6.999      Charge balance
                                       pe  =  -3.351      Adjusted to redox equilibrium
                        Activity of water  =   1.000
                 Ionic strength (mol/kgw)  =   1.003e-07
                       Mass of water (kg)  =   1.000e+00
                 Total alkalinity (eq/kg)  =   2.407e-11
                         Temperature (°C)  =  25.00
                  Electrical balance (eq)  =  -4.287e-16
 Percent error, 100*(Cat-|An|)/(Cat+|An|)  =  -0.00
                               Iterations  =   3
                                  Total H  = 1.110124e+02
                                  Total O  = 5.550622e+01

----------------------------Distribution of species----------------------------

                                               Log       Log       Log    mole V
   Species          Molality    Activity  Molality  Activity     Gamma    cm³/mol

   OH-             1.003e-07   1.002e-07    -6.999    -6.999    -0.000     (0)  
   H+              1.003e-07   1.002e-07    -6.999    -6.999    -0.000      0.00
   H2O             5.551e+01   1.000e+00     1.744    -0.000     0.000     18.07
Fe(2)         1.800e-11
   Fe+2            1.794e-11   1.792e-11   -10.746   -10.747    -0.001     (0)  
   FeOH+           5.656e-14   5.653e-14   -13.248   -13.248    -0.000     (0)  
   Fe(OH)2         4.801e-18   4.801e-18   -17.319   -17.319     0.000     (0)  
   FeSO4           1.898e-20   1.898e-20   -19.722   -19.722     0.000     (0)  
   Fe(OH)3-        1.781e-21   1.780e-21   -20.749   -20.750    -0.000     (0)  
   Fe(HS)2         5.158e-30   5.158e-30   -29.288   -29.288     0.000     (0)  
   Fe(HS)3-        0.000e+00   0.000e+00   -40.996   -40.996    -0.000     (0)  
Fe(3)         1.782e-19
   Fe(OH)2+        1.578e-19   1.578e-19   -18.802   -18.802    -0.000     (0)  
   Fe(OH)3         1.849e-20   1.849e-20   -19.733   -19.733     0.000     (0)  
   Fe(OH)4-        1.846e-21   1.845e-21   -20.734   -20.734    -0.000     (0)  
   FeOH+2          4.782e-23   4.775e-23   -22.320   -22.321    -0.001     (0)  
   Fe+3            7.436e-28   7.411e-28   -27.129   -27.130    -0.001     (0)  
   FeSO4+          3.673e-35   3.672e-35   -34.435   -34.435    -0.000     (0)  
   Fe2(OH)2+4      0.000e+00   0.000e+00   -43.210   -43.212    -0.003     (0)  
   Fe(SO4)2-       0.000e+00   0.000e+00   -44.160   -44.160    -0.000     (0)  
   Fe3(OH)4+5      0.000e+00   0.000e+00   -59.690   -59.694    -0.004     (0)  
H(0)          7.173e-11
   H2              3.586e-11   3.586e-11   -10.445   -10.445     0.000     (0)  
O(0)          0.000e+00
   O2              0.000e+00   0.000e+00   -71.489   -71.489     0.000     (0)  
S(-2)         3.420e-14
   HS-             1.798e-14   1.797e-14   -13.745   -13.745    -0.000     (0)  
   H2S             1.575e-14   1.575e-14   -13.803   -13.803     0.000     (0)  
   S5-2            4.563e-17   4.557e-17   -16.341   -16.341    -0.001     (0)  
   S4-2            2.662e-17   2.659e-17   -16.575   -16.575    -0.001     (0)  
   S6-2            2.362e-17   2.359e-17   -16.627   -16.627    -0.001     (0)  
   S-2             2.169e-20   2.166e-20   -19.664   -19.664    -0.001     (0)  
   S3-2            9.382e-21   9.368e-21   -20.028   -20.028    -0.001     (0)  
   S2-2            5.325e-22   5.317e-22   -21.274   -21.274    -0.001     (0)  
   Fe(HS)2         5.158e-30   5.158e-30   -29.288   -29.288     0.000     (0)  
   Fe(HS)3-        0.000e+00   0.000e+00   -40.996   -40.996    -0.000     (0)  
S(6)          5.966e-12
   SO4-2           5.966e-12   5.957e-12   -11.224   -11.225    -0.001     (0)  
   HSO4-           5.795e-17   5.793e-17   -16.237   -16.237    -0.000     (0)  
   FeSO4           1.898e-20   1.898e-20   -19.722   -19.722     0.000     (0)  
   FeSO4+          3.673e-35   3.672e-35   -34.435   -34.435    -0.000     (0)  
   Fe(SO4)2-       0.000e+00   0.000e+00   -44.160   -44.160    -0.000     (0)  

------------------------------Saturation indices-------------------------------

  Phase               SI** log IAP   log K(298 K,   1 atm)

  Fe2(SO4)3       -91.52    -87.94    3.58  Fe2(SO4)3
  Fe3(OH)8        -29.24     -9.01   20.22  Fe3(OH)8
  Ferrihydrite    -11.02     -6.13    4.89  Fe(OH)3
  FeS(ppt)        -13.58    -17.49   -3.92  FeS
  Goethite         -6.63     -6.13    0.50  FeOOH
  Greigite        -52.58   -108.97  -56.39  Fe3S4
  Hematite         -8.26    -12.27   -4.01  Fe2O3
  Jarosite-H      -56.75    -68.85  -12.10  (H3O)Fe3(SO4)2(OH)6
  Lepidocrocite    -7.50     -6.13    1.37  FeOOH
  Mackinawite     -15.40    -10.55    4.85  FeS
  Maghemite       -18.65    -12.27    6.39  Fe2O3
  Magnetite       -12.75     -9.01    3.74  Fe3O4
  Melanterite     -19.50    -21.97   -2.47  FeSO4:7H2O
  O2(g)           -68.53     14.59   83.12  O2
  pe_fix            3.35      3.35    0.00  e-
  pH_fix           -7.00     -7.00    0.00  H+
  Pyrite          -13.40    -50.89  -37.49  FeS2
  Pyrrhotite      -14.29    -10.55    3.74  FeS
  Sulfur          -11.34    -13.45   -2.11  S

**For a gas, SI = log10(fugacity). Fugacity = pressure * phi / 1 atm.
  For ideal gases, phi = 1.

Reaction step 7.

Using solution 1.	PURE WATER
Using pure phase assemblage 1.	
Using reaction 1.	

Reaction 1.	

	  1.000e-12 moles of the following reaction have been added:

	                 Relative
	Reactant            moles

	Fe3S1                1.00000

	                 Relative
	Element             moles
	Fe                   3.00000
	S                    1.00000

-------------------------------Phase assemblage--------------------------------

                                                      Moles in assemblage
Phase               SI  log IAP  log K(T, P)   Initial       Final       Delta

Greigite         44.70    -3.32    -48.02    0.000e+00           0   0.000e+00
Mackinawite     -15.01   -10.16      4.85    0.000e+00           0   0.000e+00
Pyrite           14.64     5.34     -9.30    0.000e+00           0   0.000e+00
Pyrrhotite      -13.90   -10.16      3.74    0.000e+00           0   0.000e+00

-----------------------------Solution composition------------------------------

	Elements           Molality       Moles

	Fe                2.100e-11   2.100e-11
	S                 7.000e-12   7.000e-12

----------------------------Description of solution----------------------------

                                       pH  =   6.999      Charge balance
                                       pe  =  -3.384      Adjusted to redox equilibrium
                        Activity of water  =   1.000
                 Ionic strength (mol/kgw)  =   1.003e-07
                       Mass of water (kg)  =   1.000e+00
                 Total alkalinity (eq/kg)  =   2.815e-11
                         Temperature (°C)  =  25.00
                  Electrical balance (eq)  =  -4.286e-16
 Percent error, 100*(Cat-|An|)/(Cat+|An|)  =  -0.00
                               Iterations  =   3
                                  Total H  = 1.110124e+02
                                  Total O  = 5.550622e+01

----------------------------Distribution of species----------------------------

                                               Log       Log       Log    mole V
   Species          Molality    Activity  Molality  Activity     Gamma    cm³/mol

   OH-             1.003e-07   1.002e-07    -6.999    -6.999    -0.000     (0)  
   H+              1.003e-07   1.002e-07    -6.999    -6.999    -0.000      0.00
   H2O             5.551e+01   1.000e+00     1.744    -0.000     0.000     18.07
Fe(2)         2.100e-11
   Fe+2            2.093e-11   2.090e-11   -10.679   -10.680    -0.001     (0)  
   FeOH+           6.598e-14   6.596e-14   -13.181   -13.181    -0.000     (0)  
   Fe(OH)2         5.602e-18   5.602e-18   -17.252   -17.252     0.000     (0)  
   FeSO4           2.571e-20   2.571e-20   -19.590   -19.590     0.000     (0)  
   Fe(OH)3-        2.078e-21   2.077e-21   -20.682   -20.683    -0.000     (0)  
   Fe(HS)2         2.716e-29   2.716e-29   -28.566   -28.566     0.000     (0)  
   Fe(HS)3-        1.129e-40   1.129e-40   -39.947   -39.947    -0.000     (0)  
Fe(3)         1.928e-19
   Fe(OH)2+        1.707e-19   1.707e-19   -18.768   -18.768    -0.000     (0)  
   Fe(OH)3         2.001e-20   2.001e-20   -19.699   -19.699     0.000     (0)  
   Fe(OH)4-        1.997e-21   1.996e-21   -20.700   -20.700    -0.000     (0)  
   FeOH+2          5.173e-23   5.165e-23   -22.286   -22.287    -0.001     (0)  
   Fe+3            8.044e-28   8.017e-28   -27.095   -27.096    -0.001     (0)  
   FeSO4+          4.614e-35   4.613e-35   -34.336   -34.336    -0.000     (0)  
   Fe2(OH)2+4      0.000e+00   0.000e+00   -43.141   -43.144    -0.003     (0)  
   Fe(SO4)2-       0.000e+00   0.000e+00   -43.996   -43.996    -0.000     (0)  
   Fe3(OH)4+5      0.000e+00   0.000e+00   -59.588   -59.592    -0.004     (0)  
H(0)          8.342e-11
   H2              4.171e-11   4.171e-11   -10.380   -10.380     0.000     (0)  
O(0)          0.000e+00
   O2              0.000e+00   0.000e+00   -71.620   -71.620     0.000     (0)  
S(-2)         7.266e-14
   HS-             3.819e-14   3.818e-14   -13.418   -13.418    -0.000     (0)  
   H2S             3.345e-14   3.345e-14   -13.476   -13.476     0.000     (0)  
   S5-2            9.695e-17   9.680e-17   -16.013   -16.014    -0.001     (0)  
   S4-2            5.656e-17   5.648e-17   -16.247   -16.248    -0.001     (0)  
   S6-2            5.018e-17   5.011e-17   -16.299   -16.300    -0.001     (0)  
   S-2             4.608e-20   4.601e-20   -19.336   -19.337    -0.001     (0)  
   S3-2            1.993e-20   1.990e-20   -19.700   -19.701    -0.001     (0)  
   S2-2            1.131e-21   1.130e-21   -20.946   -20.947    -0.001     (0)  
   Fe(HS)2         2.716e-29   2.716e-29   -28.566   -28.566     0.000     (0)  
   Fe(HS)3-        1.129e-40   1.129e-40   -39.947   -39.947    -0.000     (0)  
S(6)          6.927e-12
   SO4-2           6.927e-12   6.917e-12   -11.159   -11.160    -0.001     (0)  
   HSO4-           6.729e-17   6.727e-17   -16.172   -16.172    -0.000     (0)  
   FeSO4           2.571e-20   2.571e-20   -19.590   -19.590     0.000     (0)  
   FeSO4+          4.614e-35   4.613e-35   -34.336   -34.336    -0.000     (0)  
   Fe(SO4)2-       0.000e+00   0.000e+00   -43.996   -43.996    -0.000     (0)  

------------------------------Saturation indices-------------------------------

  Phase               SI** log IAP   log K(298 K,   1 atm)

  Fe2(SO4)3       -91.25    -87.67    3.58  Fe2(SO4)3
  Fe3(OH)8        -29.10     -8.88   20.22  Fe3(OH)8
  Ferrihydrite    -10.99     -6.10    4.89  Fe(OH)3
  FeS(ppt)        -13.18    -17.10   -3.92  FeS
  Goethite         -6.60     -6.10    0.50  FeOOH
  Greigite        -51.14   -107.52  -56.39  Fe3S4
  Hematite         -8.19    -12.20   -4.01  Fe2O3
  Jarosite-H      -56.51    -68.61  -12.10  (H3O)Fe3(SO4)2(OH)6
  Lepidocrocite    -7.47     -6.10    1.37  FeOOH
  Mackinawite     -15.01    -10.16    4.85  FeS
  Maghemite       -18.58    -12.20    6.39  Fe2O3
  Magnetite       -12.62     -8.88    3.74  Fe3O4
  Melanterite     -19.37    -21.84   -2.47  FeSO4:7H2O
  O2(g)           -68.66     14.46   83.12  O2
  pe_fix            3.38      3.38    0.00  e-
  pH_fix           -7.00     -7.00    0.00  H+
  Pyrite          -12.74    -50.23  -37.49  FeS2
  Pyrrhotite      -13.90    -10.16    3.74  FeS
  Sulfur          -11.08    -13.19   -2.11  S

**For a gas, SI = log10(fugacity). Fugacity = pressure * phi / 1 atm.
  For ideal gases, phi = 1.

Reaction step 8.

Using solution 1.	PURE WATER
Using pure phase assemblage 1.	
Using reaction 1.	

Reaction 1.	

	  1.000e-12 moles of the following reaction have been added:

	                 Relative
	Reactant            moles

	Fe3S1                1.00000

	                 Relative
	Element             moles
	Fe                   3.00000
	S                    1.00000

-------------------------------Phase assemblage--------------------------------

                                                      Moles in assemblage
Phase               SI  log IAP  log K(T, P)   Initial       Final       Delta

Greigite         44.64    -3.38    -48.02    0.000e+00           0   0.000e+00
Mackinawite     -14.67    -9.82      4.85    0.000e+00           0   0.000e+00
Pyrite           14.61     5.31     -9.30    0.000e+00           0   0.000e+00
Pyrrhotite      -13.56    -9.82      3.74    0.000e+00           0   0.000e+00

-----------------------------Solution composition------------------------------

	Elements           Molality       Moles

	Fe                2.400e-11   2.400e-11
	S                 8.000e-12   8.000e-12

----------------------------Description of solution----------------------------

                                       pH  =   6.999      Charge balance
                                       pe  =  -3.412      Adjusted to redox equilibrium
                        Activity of water  =   1.000
                 Ionic strength (mol/kgw)  =   1.003e-07
                       Mass of water (kg)  =   1.000e+00
                 Total alkalinity (eq/kg)  =   3.228e-11
                         Temperature (°C)  =  25.00
                  Electrical balance (eq)  =  -4.286e-16
 Percent error, 100*(Cat-|An|)/(Cat+|An|)  =  -0.00
                               Iterations  =   3
                                  Total H  = 1.110124e+02
                                  Total O  = 5.550622e+01

----------------------------Distribution of species----------------------------

                                               Log       Log       Log    mole V
   Species          Molality    Activity  Molality  Activity     Gamma    cm³/mol

   OH-             1.003e-07   1.002e-07    -6.999    -6.999    -0.000     (0)  
   H+              1.003e-07   1.002e-07    -6.999    -6.999    -0.000      0.00
   H2O             5.551e+01   1.000e+00     1.744    -0.000     0.000     18.07
Fe(2)         2.400e-11
   Fe+2            2.392e-11   2.389e-11   -10.621   -10.622    -0.001     (0)  
   FeOH+           7.541e-14   7.538e-14   -13.123   -13.123    -0.000     (0)  
   Fe(OH)2         6.402e-18   6.402e-18   -17.194   -17.194     0.000     (0)  
   FeSO4           3.335e-20   3.335e-20   -19.477   -19.477     0.000     (0)  
   Fe(OH)3-        2.374e-21   2.374e-21   -20.624   -20.625    -0.000     (0)  
   Fe(HS)2         1.122e-28   1.122e-28   -27.950   -27.950     0.000     (0)  
   Fe(HS)3-        8.877e-40   8.874e-40   -39.052   -39.052    -0.000     (0)  
Fe(3)         2.066e-19
   Fe(OH)2+        1.829e-19   1.829e-19   -18.738   -18.738    -0.000     (0)  
   Fe(OH)3         2.144e-20   2.144e-20   -19.669   -19.669     0.000     (0)  
   Fe(OH)4-        2.140e-21   2.139e-21   -20.670   -20.670    -0.000     (0)  
   FeOH+2          5.542e-23   5.534e-23   -22.256   -22.257    -0.001     (0)  
   Fe+3            8.619e-28   8.590e-28   -27.065   -27.066    -0.001     (0)  
   FeSO4+          5.611e-35   5.609e-35   -34.251   -34.251    -0.000     (0)  
   Fe2(OH)2+4      0.000e+00   0.000e+00   -43.081   -43.084    -0.003     (0)  
   Fe(SO4)2-       0.000e+00   0.000e+00   -43.856   -43.856    -0.000     (0)  
   Fe3(OH)4+5      0.000e+00   0.000e+00   -59.498   -59.502    -0.004     (0)  
H(0)          9.491e-11
   H2              4.746e-11   4.746e-11   -10.324   -10.324     0.000     (0)  
O(0)          0.000e+00
   O2              0.000e+00   0.000e+00   -71.733   -71.733     0.000     (0)  
S(-2)         1.382e-13
   HS-             7.263e-14   7.261e-14   -13.139   -13.139    -0.000     (0)  
   H2S             6.362e-14   6.362e-14   -13.196   -13.196     0.000     (0)  
   S5-2            1.844e-16   1.841e-16   -15.734   -15.735    -0.001     (0)  
   S4-2            1.076e-16   1.074e-16   -15.968   -15.969    -0.001     (0)  
   S6-2            9.543e-17   9.529e-17   -16.020   -16.021    -0.001     (0)  
   S-2             8.764e-20   8.751e-20   -19.057   -19.058    -0.001     (0)  
   S3-2            3.790e-20   3.785e-20   -19.421   -19.422    -0.001     (0)  
   S2-2            2.151e-21   2.148e-21   -20.667   -20.668    -0.001     (0)  
   Fe(HS)2         1.122e-28   1.122e-28   -27.950   -27.950     0.000     (0)  
   Fe(HS)3-        8.877e-40   8.874e-40   -39.052   -39.052    -0.000     (0)  
S(6)          7.862e-12
   SO4-2           7.862e-12   7.850e-12   -11.104   -11.105    -0.001     (0)  
   HSO4-           7.637e-17   7.634e-17   -16.117   -16.117    -0.000     (0)  
   FeSO4           3.335e-20   3.335e-20   -19.477   -19.477     0.000     (0)  
   FeSO4+          5.611e-35   5.609e-35   -34.251   -34.251    -0.000     (0)  
   Fe(SO4)2-       0.000e+00   0.000e+00   -43.856   -43.856    -0.000     (0)  

------------------------------Saturation indices-------------------------------

  Phase               SI** log IAP   log K(298 K,   1 atm)

  Fe2(SO4)3       -91.03    -87.45    3.58  Fe2(SO4)3
  Fe3(OH)8        -28.98     -8.76   20.22  Fe3(OH)8
  Ferrihydrite    -10.96     -6.07    4.89  Fe(OH)3
  FeS(ppt)        -12.85    -16.76   -3.92  FeS
  Goethite         -6.57     -6.07    0.50  FeOOH
  Greigite        -49.90   -106.29  -56.39  Fe3S4
  Hematite         -8.13    -12.14   -4.01  Fe2O3
  Jarosite-H      -56.31    -68.41  -12.10  (H3O)Fe3(SO4)2(OH)6
  Lepidocrocite    -7.44     -6.07    1.37  FeOOH
  Mackinawite     -14.67     -9.82    4.85  FeS
  Maghemite       -18.52    -12.14    6.39  Fe2O3
  Magnetite       -12.50     -8.76    3.74  Fe3O4
  Melanterite     -19.26    -21.73   -2.47  FeSO4:7H2O
  O2(g)           -68.77     14.35   83.12  O2
  pe_fix            3.41      3.41    0.00  e-
  pH_fix           -7.00     -7.00    0.00  H+
  Pyrite          -12.18    -49.67  -37.49  FeS2
  Pyrrhotite      -13.56     -9.82    3.74  FeS
  Sulfur          -10.85    -12.96   -2.11  S

**For a gas, SI = log10(fugacity). Fugacity = pressure * phi / 1 atm.
  For ideal gases, phi = 1.

Reaction step 9.

Using solution 1.	PURE WATER
Using pure phase assemblage 1.	
Using reaction 1.	

Reaction 1.	

	  1.000e-12 moles of the following reaction have been added:

	                 Relative
	Reactant            moles

	Fe3S1                1.00000

	                 Relative
	Element             moles
	Fe                   3.00000
	S                    1.00000

-------------------------------Phase assemblage--------------------------------

                                                      Moles in assemblage
Phase               SI  log IAP  log K(T, P)   Initial       Final       Delta

Greigite         44.59    -3.43    -48.02    0.000e+00           0   0.000e+00
Mackinawite     -14.38    -9.53      4.85    0.000e+00           0   0.000e+00
Pyrite           14.58     5.29     -9.30    0.000e+00           0   0.000e+00
Pyrrhotite      -13.27    -9.53      3.74    0.000e+00           0   0.000e+00

-----------------------------Solution composition------------------------------

	Elements           Molality       Moles

	Fe                2.700e-11   2.700e-11
	S                 9.000e-12   9.000e-12

----------------------------Description of solution----------------------------

                                       pH  =   6.999      Charge balance
                                       pe  =  -3.436      Adjusted to redox equilibrium
                        Activity of water  =   1.000
                 Ionic strength (mol/kgw)  =   1.003e-07
                       Mass of water (kg)  =   1.000e+00
                 Total alkalinity (eq/kg)  =   3.648e-11
                         Temperature (°C)  =  25.00
                  Electrical balance (eq)  =  -4.286e-16
 Percent error, 100*(Cat-|An|)/(Cat+|An|)  =  -0.00
                               Iterations  =   3
                                  Total H  = 1.110124e+02
                                  Total O  = 5.550622e+01

----------------------------Distribution of species----------------------------

                                               Log       Log       Log    mole V
   Species          Molality    Activity  Molality  Activity     Gamma    cm³/mol

   OH-             1.003e-07   1.002e-07    -6.999    -6.999    -0.000     (0)  
   H+              1.002e-07   1.002e-07    -6.999    -6.999    -0.000      0.00
   H2O             5.551e+01   1.000e+00     1.744    -0.000     0.000     18.07
Fe(2)         2.700e-11
   Fe+2            2.692e-11   2.688e-11   -10.570   -10.571    -0.001     (0)  
   FeOH+           8.484e-14   8.481e-14   -13.071   -13.072    -0.000     (0)  
   Fe(OH)2         7.203e-18   7.203e-18   -17.142   -17.142     0.000     (0)  
   FeSO4           4.180e-20   4.180e-20   -19.379   -19.379     0.000     (0)  
   Fe(OH)3-        2.671e-21   2.670e-21   -20.573   -20.573    -0.000     (0)  
   Fe(HS)2         3.818e-28   3.818e-28   -27.418   -27.418     0.000     (0)  
   Fe(HS)3-        5.251e-39   5.249e-39   -38.280   -38.280    -0.000     (0)  
Fe(3)         2.198e-19
   Fe(OH)2+        1.947e-19   1.946e-19   -18.711   -18.711    -0.000     (0)  
   Fe(OH)3         2.281e-20   2.281e-20   -19.642   -19.642     0.000     (0)  
   Fe(OH)4-        2.277e-21   2.277e-21   -20.643   -20.643    -0.000     (0)  
   FeOH+2          5.898e-23   5.889e-23   -22.229   -22.230    -0.001     (0)  
   Fe+3            9.171e-28   9.140e-28   -27.038   -27.039    -0.001     (0)  
   FeSO4+          6.652e-35   6.650e-35   -34.177   -34.177    -0.000     (0)  
   Fe2(OH)2+4      0.000e+00   0.000e+00   -43.027   -43.030    -0.003     (0)  
   Fe(SO4)2-       0.000e+00   0.000e+00   -43.735   -43.735    -0.000     (0)  
   Fe3(OH)4+5      0.000e+00   0.000e+00   -59.417   -59.421    -0.004     (0)  
H(0)          1.061e-10
   H2              5.304e-11   5.304e-11   -10.275   -10.275     0.000     (0)  
O(0)          0.000e+00
   O2              0.000e+00   0.000e+00   -71.829   -71.829     0.000     (0)  
S(-2)         2.403e-13
   HS-             1.263e-13   1.263e-13   -12.899   -12.899    -0.000     (0)  
   H2S             1.106e-13   1.106e-13   -12.956   -12.956     0.000     (0)  
   S5-2            3.206e-16   3.201e-16   -15.494   -15.495    -0.001     (0)  
   S4-2            1.871e-16   1.868e-16   -15.728   -15.729    -0.001     (0)  
   S6-2            1.659e-16   1.657e-16   -15.780   -15.781    -0.001     (0)  
   S-2             1.524e-19   1.522e-19   -18.817   -18.818    -0.001     (0)  
   S3-2            6.591e-20   6.581e-20   -19.181   -19.182    -0.001     (0)  
   S2-2            3.741e-21   3.735e-21   -20.427   -20.428    -0.001     (0)  
   Fe(HS)2         3.818e-28   3.818e-28   -27.418   -27.418     0.000     (0)  
   Fe(HS)3-        5.251e-39   5.249e-39   -38.280   -38.280    -0.000     (0)  
S(6)          8.760e-12
   SO4-2           8.760e-12   8.747e-12   -11.058   -11.058    -0.001     (0)  
   HSO4-           8.509e-17   8.506e-17   -16.070   -16.070    -0.000     (0)  
   FeSO4           4.180e-20   4.180e-20   -19.379   -19.379     0.000     (0)  
   FeSO4+          6.652e-35   6.650e-35   -34.177   -34.177    -0.000     (0)  
   Fe(SO4)2-       0.000e+00   0.000e+00   -43.735   -43.735    -0.000     (0)  

------------------------------Saturation indices-------------------------------

  Phase               SI** log IAP   log K(298 K,   1 atm)

  Fe2(SO4)3       -90.83    -87.25    3.58  Fe2(SO4)3
  Fe3(OH)8        -28.88     -8.66   20.22  Fe3(OH)8
  Ferrihydrite    -10.93     -6.04    4.89  Fe(OH)3
  FeS(ppt)        -12.56    -16.47   -3.92  FeS
  Goethite         -6.54     -6.04    0.50  FeOOH
  Greigite        -48.84   -105.22  -56.39  Fe3S4
  Hematite         -8.08    -12.08   -4.01  Fe2O3
  Jarosite-H      -56.14    -68.24  -12.10  (H3O)Fe3(SO4)2(OH)6
  Lepidocrocite    -7.41     -6.04    1.37  FeOOH
  Mackinawite     -14.38     -9.53    4.85  FeS
  Maghemite       -18.47    -12.08    6.39  Fe2O3
  Magnetite       -12.39     -8.66    3.74  Fe3O4
  Melanterite     -19.16    -21.63   -2.47  FeSO4:7H2O
  O2(g)           -68.87     14.25   83.12  O2
  pe_fix            3.44      3.44    0.00  e-
  pH_fix           -7.00     -7.00    0.00  H+
  Pyrite          -11.70    -49.19  -37.49  FeS2
  Pyrrhotite      -13.27     -9.53    3.74  FeS
  Sulfur          -10.66    -12.77   -2.11  S

**For a gas, SI = log10(fugacity). Fugacity = pressure * phi / 1 atm.
  For ideal gases, phi = 1.

Reaction step 10.

Using solution 1.	PURE WATER
Using pure phase assemblage 1.	
Using reaction 1.	

Reaction 1.	

	  1.000e-12 moles of the following reaction have been added:

	                 Relative
	Reactant            moles

	Fe3S1                1.00000

	                 Relative
	Element             moles
	Fe                   3.00000
	S                    1.00000

-------------------------------Phase assemblage--------------------------------

                                                      Moles in assemblage
Phase               SI  log IAP  log K(T, P)   Initial       Final       Delta

Greigite         44.55    -3.47    -48.02    0.000e+00           0   0.000e+00
Mackinawite     -14.12    -9.27      4.85    0.000e+00           0   0.000e+00
Pyrite           14.56     5.26     -9.30    0.000e+00           0   0.000e+00
Pyrrhotite      -13.02    -9.27      3.74    0.000e+00           0   0.000e+00

-----------------------------Solution composition------------------------------

	Elements           Molality       Moles

	Fe                3.000e-11   3.000e-11
	S                 1.000e-11   1.000e-11

----------------------------Description of solution----------------------------

                                       pH  =   6.999      Charge balance
                                       pe  =  -3.458      Adjusted to redox equilibrium
                        Activity of water  =   1.000
                 Ionic strength (mol/kgw)  =   1.003e-07
                       Mass of water (kg)  =   1.000e+00
                 Total alkalinity (eq/kg)  =   4.078e-11
                         Temperature (°C)  =  25.00
                  Electrical balance (eq)  =  -4.287e-16
 Percent error, 100*(Cat-|An|)/(Cat+|An|)  =  -0.00
                               Iterations  =   3
                                  Total H  = 1.110124e+02
                                  Total O  = 5.550622e+01

----------------------------Distribution of species----------------------------

                                               Log       Log       Log    mole V
   Species          Molality    Activity  Molality  Activity     Gamma    cm³/mol

   OH-             1.003e-07   1.003e-07    -6.999    -6.999    -0.000     (0)  
   H+              1.002e-07   1.002e-07    -6.999    -6.999    -0.000      0.00
   H2O             5.551e+01   1.000e+00     1.744    -0.000     0.000     18.07
Fe(2)         3.000e-11
   Fe+2            2.991e-11   2.986e-11   -10.524   -10.525    -0.001     (0)  
   FeOH+           9.427e-14   9.423e-14   -13.026   -13.026    -0.000     (0)  
   Fe(OH)2         8.004e-18   8.004e-18   -17.097   -17.097     0.000     (0)  
   FeSO4           5.096e-20   5.096e-20   -19.293   -19.293     0.000     (0)  
   Fe(OH)3-        2.968e-21   2.967e-21   -20.527   -20.528    -0.000     (0)  
   Fe(HS)2         1.111e-27   1.111e-27   -26.954   -26.954     0.000     (0)  
   Fe(HS)3-        2.474e-38   2.473e-38   -37.607   -37.607    -0.000     (0)  
Fe(3)         2.327e-19
   Fe(OH)2+        2.060e-19   2.060e-19   -18.686   -18.686    -0.000     (0)  
   Fe(OH)3         2.415e-20   2.415e-20   -19.617   -19.617     0.000     (0)  
   Fe(OH)4-        2.411e-21   2.410e-21   -20.618   -20.618    -0.000     (0)  
   FeOH+2          6.242e-23   6.233e-23   -22.205   -22.205    -0.001     (0)  
   Fe+3            9.706e-28   9.674e-28   -27.013   -27.014    -0.001     (0)  
   FeSO4+          7.725e-35   7.722e-35   -34.112   -34.112    -0.000     (0)  
   Fe2(OH)2+4      0.000e+00   0.000e+00   -42.978   -42.981    -0.003     (0)  
   Fe(SO4)2-       0.000e+00   0.000e+00   -43.630   -43.630    -0.000     (0)  
   Fe3(OH)4+5      0.000e+00   0.000e+00   -59.343   -59.347    -0.004     (0)  
H(0)          1.169e-10
   H2              5.846e-11   5.846e-11   -10.233   -10.233     0.000     (0)  
O(0)          0.000e+00
   O2              0.000e+00   0.000e+00   -71.914   -71.914     0.000     (0)  
S(-2)         3.889e-13
   HS-             2.044e-13   2.043e-13   -12.689   -12.690    -0.000     (0)  
   H2S             1.790e-13   1.790e-13   -12.747   -12.747     0.000     (0)  
   S5-2            5.189e-16   5.181e-16   -15.285   -15.286    -0.001     (0)  
   S4-2            3.028e-16   3.023e-16   -15.519   -15.520    -0.001     (0)  
   S6-2            2.686e-16   2.682e-16   -15.571   -15.572    -0.001     (0)  
   S-2             2.467e-19   2.463e-19   -18.608   -18.609    -0.001     (0)  
   S3-2            1.067e-19   1.065e-19   -18.972   -18.973    -0.001     (0)  
   S2-2            6.055e-21   6.046e-21   -20.218   -20.219    -0.001     (0)  
   Fe(HS)2         1.111e-27   1.111e-27   -26.954   -26.954     0.000     (0)  
   Fe(HS)3-        2.474e-38   2.473e-38   -37.607   -37.607    -0.000     (0)  
S(6)          9.611e-12
   SO4-2           9.611e-12   9.597e-12   -11.017   -11.018    -0.001     (0)  
   HSO4-           9.336e-17   9.332e-17   -16.030   -16.030    -0.000     (0)  
   FeSO4           5.096e-20   5.096e-20   -19.293   -19.293     0.000     (0)  
   FeSO4+          7.725e-35   7.722e-35   -34.112   -34.112    -0.000     (0)  
   Fe(SO4)2-       0.000e+00   0.000e+00   -43.630   -43.630    -0.000     (0)  

------------------------------Saturation indices-------------------------------

  Phase               SI** log IAP   log K(298 K,   1 atm)

  Fe2(SO4)3       -90.66    -87.08    3.58  Fe2(SO4)3
  Fe3(OH)8        -28.78     -8.56   20.22  Fe3(OH)8
  Ferrihydrite    -10.91     -6.02    4.89  Fe(OH)3
  FeS(ppt)        -12.30    -16.22   -3.92  FeS
  Goethite         -6.52     -6.02    0.50  FeOOH
  Greigite        -47.90   -104.29  -56.39  Fe3S4
  Hematite         -8.03    -12.03   -4.01  Fe2O3
  Jarosite-H      -55.98    -68.08  -12.10  (H3O)Fe3(SO4)2(OH)6
  Lepidocrocite    -7.39     -6.02    1.37  FeOOH
  Mackinawite     -14.12     -9.27    4.85  FeS
  Maghemite       -18.42    -12.03    6.39  Fe2O3
  Magnetite       -12.30     -8.56    3.74  Fe3O4
  Melanterite     -19.07    -21.54   -2.47  FeSO4:7H2O
  O2(g)           -68.95     14.17   83.12  O2
  pe_fix            3.46      3.46    0.00  e-
  pH_fix           -7.00     -7.00    0.00  H+
  Pyrite          -11.28    -48.77  -37.49  FeS2
  Pyrrhotite      -13.02     -9.27    3.74  FeS
  Sulfur          -10.50    -12.61   -2.11  S

**For a gas, SI = log10(fugacity). Fugacity = pressure * phi / 1 atm.
  For ideal gases, phi = 1.

Reaction step 11.

Using solution 1.	PURE WATER
Using pure phase assemblage 1.	
Using reaction 1.	

Reaction 1.	

	  1.000e-11 moles of the following reaction have been added:

	                 Relative
	Reactant            moles

	Fe3S1                1.00000

	                 Relative
	Element             moles
	Fe                   3.00000
	S                    1.00000

-------------------------------Phase assemblage--------------------------------

                                                      Moles in assemblage
Phase               SI  log IAP  log K(T, P)   Initial       Final       Delta

Greigite         44.25    -3.77    -48.02    0.000e+00           0   0.000e+00
Mackinawite     -12.71    -7.86      4.85    0.000e+00           0   0.000e+00
Pyrite           14.41     5.11     -9.30    0.000e+00           0   0.000e+00
Pyrrhotite      -11.60    -7.86      3.74    0.000e+00           0   0.000e+00

-----------------------------Solution composition------------------------------

	Elements           Molality       Moles

	Fe                6.000e-11   6.000e-11
	S                 2.000e-11   2.000e-11

----------------------------Description of solution----------------------------

                                       pH  =   6.999      Charge balance
                                       pe  =  -3.573      Adjusted to redox equilibrium
                        Activity of water  =   1.000
                 Ionic strength (mol/kgw)  =   1.004e-07
                       Mass of water (kg)  =   1.000e+00
                 Total alkalinity (eq/kg)  =   9.019e-11
                         Temperature (°C)  =  25.00
                  Electrical balance (eq)  =  -4.287e-16
 Percent error, 100*(Cat-|An|)/(Cat+|An|)  =  -0.00
                               Iterations  =   6
                                  Total H  = 1.110124e+02
                                  Total O  = 5.550622e+01

----------------------------Distribution of species----------------------------

                                               Log       Log       Log    mole V
   Species          Molality    Activity  Molality  Activity     Gamma    cm³/mol

   OH-             1.003e-07   1.003e-07    -6.999    -6.999    -0.000     (0)  
   H+              1.002e-07   1.002e-07    -6.999    -6.999    -0.000      0.00
   H2O             5.551e+01   1.000e+00     1.744    -0.000     0.000     18.07
Fe(2)         6.000e-11
   Fe+2            5.981e-11   5.972e-11   -10.223   -10.224    -0.001     (0)  
   FeOH+           1.886e-13   1.885e-13   -12.725   -12.725    -0.000     (0)  
   Fe(OH)2         1.601e-17   1.601e-17   -16.795   -16.795     0.000     (0)  
   FeSO4           1.581e-19   1.581e-19   -18.801   -18.801     0.000     (0)  
   Fe(OH)3-        5.941e-21   5.939e-21   -20.226   -20.226    -0.000     (0)  
   Fe(HS)2         3.817e-25   3.817e-25   -24.418   -24.418     0.000     (0)  
   Fe(HS)3-        1.114e-34   1.113e-34   -33.953   -33.953    -0.000     (0)  
Fe(3)         3.564e-19
   Fe(OH)2+        3.156e-19   3.155e-19   -18.501   -18.501    -0.000     (0)  
   Fe(OH)3         3.700e-20   3.700e-20   -19.432   -19.432     0.000     (0)  
   Fe(OH)4-        3.695e-21   3.693e-21   -20.432   -20.433    -0.000     (0)  
   FeOH+2          9.561e-23   9.547e-23   -22.020   -22.020    -0.001     (0)  
   Fe+3            1.486e-27   1.481e-27   -26.828   -26.829    -0.001     (0)  
   FeSO4+          1.834e-34   1.834e-34   -33.737   -33.737    -0.000     (0)  
   Fe2(OH)2+4      0.000e+00   0.000e+00   -42.608   -42.610    -0.003     (0)  
   Fe(SO4)2-       0.000e+00   0.000e+00   -43.064   -43.064    -0.000     (0)  
   Fe3(OH)4+5      0.000e+00   0.000e+00   -58.787   -58.791    -0.004     (0)  
H(0)          1.993e-10
   H2              9.967e-11   9.967e-11   -10.001   -10.001     0.000     (0)  
O(0)          0.000e+00
   O2              0.000e+00   0.000e+00   -72.377   -72.377     0.000     (0)  
S(-2)         5.096e-12
   HS-             2.679e-12   2.678e-12   -11.572   -11.572    -0.000     (0)  
   H2S             2.346e-12   2.346e-12   -11.630   -11.630     0.000     (0)  
   S5-2            6.802e-15   6.792e-15   -14.167   -14.168    -0.001     (0)  
   S4-2            3.969e-15   3.963e-15   -14.401   -14.402    -0.001     (0)  
   S6-2            3.521e-15   3.516e-15   -14.453   -14.454    -0.001     (0)  
   S-2             3.233e-18   3.228e-18   -17.490   -17.491    -0.001     (0)  
   S3-2            1.398e-18   1.396e-18   -17.854   -17.855    -0.001     (0)  
   S2-2            7.937e-20   7.925e-20   -19.100   -19.101    -0.001     (0)  
   Fe(HS)2         3.817e-25   3.817e-25   -24.418   -24.418     0.000     (0)  
   Fe(HS)3-        1.114e-34   1.113e-34   -33.953   -33.953    -0.000     (0)  
S(6)          1.490e-11
   SO4-2           1.490e-11   1.488e-11   -10.827   -10.827    -0.001     (0)  
   HSO4-           1.447e-16   1.447e-16   -15.839   -15.840    -0.000     (0)  
   FeSO4           1.581e-19   1.581e-19   -18.801   -18.801     0.000     (0)  
   FeSO4+          1.834e-34   1.834e-34   -33.737   -33.737    -0.000     (0)  
   Fe(SO4)2-       0.000e+00   0.000e+00   -43.064   -43.064    -0.000     (0)  

------------------------------Saturation indices-------------------------------

  Phase               SI** log IAP   log K(298 K,   1 atm)

  Fe2(SO4)3       -89.72    -86.14    3.58  Fe2(SO4)3
  Fe3(OH)8        -28.11     -7.89   20.22  Fe3(OH)8
  Ferrihydrite    -10.72     -5.83    4.89  Fe(OH)3
  FeS(ppt)        -10.88    -14.80   -3.92  FeS
  Goethite         -6.33     -5.83    0.50  FeOOH
  Greigite        -42.76    -99.15  -56.39  Fe3S4
  Hematite         -7.66    -11.66   -4.01  Fe2O3
  Jarosite-H      -55.05    -67.15  -12.10  (H3O)Fe3(SO4)2(OH)6
  Lepidocrocite    -7.20     -5.83    1.37  FeOOH
  Mackinawite     -12.71     -7.86    4.85  FeS
  Maghemite       -18.05    -11.66    6.39  Fe2O3
  Magnetite       -11.63     -7.89    3.74  Fe3O4
  Melanterite     -18.58    -21.05   -2.47  FeSO4:7H2O
  O2(g)           -69.42     13.70   83.12  O2
  pe_fix            3.57      3.57    0.00  e-
  pH_fix           -7.00     -7.00    0.00  H+
  Pyrite           -8.97    -46.46  -37.49  FeS2
  Pyrrhotite      -11.60     -7.86    3.74  FeS
  Sulfur           -9.61    -11.72   -2.11  S

**For a gas, SI = log10(fugacity). Fugacity = pressure * phi / 1 atm.
  For ideal gases, phi = 1.

Reaction step 12.

Using solution 1.	PURE WATER
Using pure phase assemblage 1.	
Using reaction 1.	

Reaction 1.	

	  1.000e-11 moles of the following reaction have been added:

	                 Relative
	Reactant            moles

	Fe3S1                1.00000

	                 Relative
	Element             moles
	Fe                   3.00000
	S                    1.00000

-------------------------------Phase assemblage--------------------------------

                                                      Moles in assemblage
Phase               SI  log IAP  log K(T, P)   Initial       Final       Delta

Greigite         44.07    -3.95    -48.02    0.000e+00           0   0.000e+00
Mackinawite     -12.10    -7.25      4.85    0.000e+00           0   0.000e+00
Pyrite           14.32     5.02     -9.30    0.000e+00           0   0.000e+00
Pyrrhotite      -10.99    -7.25      3.74    0.000e+00           0   0.000e+00

-----------------------------Solution composition------------------------------

	Elements           Molality       Moles

	Fe                9.000e-11   9.000e-11
	S                 3.000e-11   3.000e-11

----------------------------Description of solution----------------------------

                                       pH  =   6.999      Charge balance
                                       pe  =  -3.623      Adjusted to redox equilibrium
                        Activity of water  =   1.000
[...]
  For ideal gases, phi = 1.

Reaction step 108.

Using solution 1.	PURE WATER
Using pure phase assemblage 1.	
Using reaction 1.	

Reaction 1.	

	  1.000e-02 moles of the following reaction have been added:

	                 Relative
	Reactant            moles

	Fe1S3                1.00000

	                 Relative
	Element             moles
	Fe                   1.00000
	S                    3.00000

-------------------------------Phase assemblage--------------------------------

                                                      Moles in assemblage
Phase               SI  log IAP  log K(T, P)   Initial       Final       Delta

Greigite         58.52    10.50    -48.02    0.000e+00           0   0.000e+00
Mackinawite     -16.47   -18.60     -2.14    0.000e+00           0   0.000e+00
Pyrite           16.11     6.81     -9.30    8.111e-02   9.111e-02   1.000e-02
Pyrrhotite      -15.36   -18.60     -3.25    0.000e+00           0   0.000e+00

-----------------------------Solution composition------------------------------

	Elements           Molality       Moles

	Fe                6.510e-14   6.499e-14
	S                 9.126e-02   9.111e-02

----------------------------Description of solution----------------------------

                                       pH  =   1.561      Charge balance
                                       pe  =   2.974      Adjusted to redox equilibrium
                        Activity of water  =   0.998
                 Ionic strength (mol/kgw)  =   4.102e-02
                       Mass of water (kg)  =   9.984e-01
                 Total alkalinity (eq/kg)  =  -4.563e-02
                         Temperature (°C)  =  25.00
                  Electrical balance (eq)  =  -1.091e-10
 Percent error, 100*(Cat-|An|)/(Cat+|An|)  =  -0.00
                               Iterations  =   5
                                  Total H  = 1.110124e+02
                                  Total O  = 5.550622e+01

----------------------------Distribution of species----------------------------

                                               Log       Log       Log    mole V
   Species          Molality    Activity  Molality  Activity     Gamma    cm³/mol

   H+              3.192e-02   2.751e-02    -1.496    -1.561    -0.065      0.00
   OH-             4.420e-13   3.645e-13   -12.355   -12.438    -0.084     (0)  
   H2O             5.551e+01   9.979e-01     1.744    -0.001     0.000     18.07
Fe(2)         6.510e-14
   Fe+2            4.711e-14   2.387e-14   -13.327   -13.622    -0.295     (0)  
   FeSO4           1.799e-14   1.816e-14   -13.745   -13.741     0.004     (0)  
   Fe(HS)2         1.739e-18   1.756e-18   -17.760   -17.756     0.004     (0)  
   FeOH+           3.273e-22   2.738e-22   -21.485   -21.563    -0.078     (0)  
   Fe(HS)3-        6.598e-23   5.493e-23   -22.181   -22.260    -0.080     (0)  
   Fe(OH)2         8.375e-32   8.455e-32   -31.077   -31.073     0.004     (0)  
   Fe(OH)3-        1.362e-40   1.140e-40   -39.866   -39.943    -0.078     (0)  
Fe(3)         1.099e-22
   FeSO4+          8.881e-23   7.429e-23   -22.052   -22.129    -0.078     (0)  
   Fe(SO4)2-       1.207e-23   1.005e-23   -22.918   -22.998    -0.080     (0)  
   Fe+3            7.966e-24   2.088e-24   -23.099   -23.680    -0.582     (0)  
   FeOH+2          9.987e-25   4.891e-25   -24.001   -24.311    -0.310     (0)  
   Fe(OH)2+        6.999e-27   5.875e-27   -26.155   -26.231    -0.076     (0)  
   Fe(OH)3         2.481e-33   2.504e-33   -32.605   -32.601     0.004     (0)  
   Fe(OH)4-        1.082e-39   9.085e-40   -38.966   -39.042    -0.076     (0)  
   Fe2(OH)2+4      0.000e+00   0.000e+00   -45.917   -47.191    -1.274     (0)  
   Fe3(OH)4+5      0.000e+00   0.000e+00   -69.112   -71.102    -1.991     (0)  
H(0)          1.197e-12
   H2              5.983e-13   6.040e-13   -12.223   -12.219     0.004     (0)  
O(0)          0.000e+00
   O2              0.000e+00   0.000e+00   -67.948   -67.944     0.004     (0)  
S(-2)         6.845e-02
   H2S             6.845e-02   6.909e-02    -1.165    -1.161     0.004     (0)  
   HS-             3.484e-07   2.873e-07    -6.458    -6.542    -0.084     (0)  
   S5-2            5.526e-15   2.654e-15   -14.258   -14.576    -0.319     (0)  
   S4-2            3.224e-15   1.548e-15   -14.492   -14.810    -0.319     (0)  
   S6-2            2.860e-15   1.374e-15   -14.544   -14.862    -0.319     (0)  
   S-2             2.576e-18   1.262e-18   -17.589   -17.899    -0.310     (0)  
   Fe(HS)2         1.739e-18   1.756e-18   -17.760   -17.756     0.004     (0)  
   S3-2            1.136e-18   5.456e-19   -17.945   -18.263    -0.319     (0)  
   S2-2            6.448e-20   3.097e-20   -19.191   -19.509    -0.319     (0)  
   Fe(HS)3-        6.598e-23   5.493e-23   -22.181   -22.260    -0.080     (0)  
S(6)          2.282e-02
   HSO4-           1.371e-02   1.142e-02    -1.863    -1.942    -0.079     (0)  
   SO4-2           9.103e-03   4.278e-03    -2.041    -2.369    -0.328     (0)  
   FeSO4           1.799e-14   1.816e-14   -13.745   -13.741     0.004     (0)  
   FeSO4+          8.881e-23   7.429e-23   -22.052   -22.129    -0.078     (0)  
   Fe(SO4)2-       1.207e-23   1.005e-23   -22.918   -22.998    -0.080     (0)  

------------------------------Saturation indices-------------------------------

  Phase               SI** log IAP   log K(298 K,   1 atm)

  Fe2(SO4)3       -58.05    -54.47    3.58  Fe2(SO4)3
  Fe3(OH)8        -68.73    -48.51   20.22  Fe3(OH)8
  Ferrihydrite    -23.89    -19.00    4.89  Fe(OH)3
  FeS(ppt)        -14.69    -18.60   -3.92  FeS
  Goethite        -19.50    -19.00    0.50  FeOOH
  Greigite        -41.31    -97.88  -56.57  Fe3S4
  Hematite        -33.99    -38.00   -4.01  Fe2O3
  Jarosite-H      -55.88    -67.98  -12.10  (H3O)Fe3(SO4)2(OH)6
  Lepidocrocite   -20.37    -19.00    1.37  FeOOH
  Mackinawite     -16.47    -18.60   -2.14  FeS
  Maghemite       -44.39    -38.00    6.39  Fe2O3
  Magnetite       -52.24    -48.50    3.74  Fe3O4
  Melanterite     -13.53    -16.00   -2.47  FeSO4:7H2O
  O2(g)           -64.98     18.14   83.12  O2
  pe_fix           -2.97     -2.97    0.00  e-
  pH_fix           -1.56     -1.56    0.00  H+
  Pyrite           -0.00    -37.58  -37.58  FeS2
  Pyrrhotite      -15.36    -18.60   -3.25  FeS
  Sulfur            3.08      0.97   -2.11  S

**For a gas, SI = log10(fugacity). Fugacity = pressure * phi / 1 atm.
  For ideal gases, phi = 1.

Reaction step 109.

Using solution 1.	PURE WATER
Using pure phase assemblage 1.	
Using reaction 1.	

Reaction 1.	

	  1.000e-02 moles of the following reaction have been added:

	                 Relative
	Reactant            moles

	Fe1S3                1.00000

	                 Relative
	Element             moles
	Fe                   1.00000
	S                    3.00000

-------------------------------Phase assemblage--------------------------------

                                                      Moles in assemblage
Phase               SI  log IAP  log K(T, P)   Initial       Final       Delta

Greigite         58.63    10.61    -48.02    0.000e+00           0   0.000e+00
Mackinawite     -16.52   -18.66     -2.14    0.000e+00           0   0.000e+00
Pyrite           16.12     6.82     -9.30    9.111e-02   1.011e-01   1.000e-02
Pyrrhotite      -15.42   -18.66     -3.25    0.000e+00           0   0.000e+00

-----------------------------Solution composition------------------------------

	Elements           Molality       Moles

	Fe                6.283e-14   6.272e-14
	S                 1.013e-01   1.011e-01

----------------------------Description of solution----------------------------

                                       pH  =   1.522      Charge balance
                                       pe  =   3.018      Adjusted to redox equilibrium
                        Activity of water  =   0.998
                 Ionic strength (mol/kgw)  =   4.471e-02
                       Mass of water (kg)  =   9.982e-01
                 Total alkalinity (eq/kg)  =  -5.065e-02
                         Temperature (°C)  =  25.00
                  Electrical balance (eq)  =  -1.092e-10
 Percent error, 100*(Cat-|An|)/(Cat+|An|)  =  -0.00
                               Iterations  =   5
                                  Total H  = 1.110124e+02
                                  Total O  = 5.550622e+01

----------------------------Distribution of species----------------------------

                                               Log       Log       Log    mole V
   Species          Molality    Activity  Molality  Activity     Gamma    cm³/mol

   H+              3.502e-02   3.005e-02    -1.456    -1.522    -0.066      0.00
   OH-             4.072e-13   3.335e-13   -12.390   -12.477    -0.087     (0)  
   H2O             5.551e+01   9.977e-01     1.744    -0.001     0.000     18.07
Fe(2)         6.283e-14
   Fe+2            4.529e-14   2.247e-14   -13.344   -13.648    -0.304     (0)  
   FeSO4           1.754e-14   1.772e-14   -13.756   -13.751     0.004     (0)  
   Fe(HS)2         1.691e-18   1.708e-18   -17.772   -17.767     0.004     (0)  
   FeOH+           2.836e-22   2.358e-22   -21.547   -21.627    -0.080     (0)  
   Fe(HS)3-        6.566e-23   5.434e-23   -22.183   -22.265    -0.082     (0)  
   Fe(OH)2         6.595e-32   6.663e-32   -31.181   -31.176     0.004     (0)  
   Fe(OH)3-        0.000e+00   0.000e+00   -40.005   -40.085    -0.080     (0)  
Fe(3)         1.198e-22
   FeSO4+          9.659e-23   8.033e-23   -22.015   -22.095    -0.080     (0)  
   Fe(SO4)2-       1.362e-23   1.127e-23   -22.866   -22.948    -0.082     (0)  
   Fe+3            8.611e-24   2.177e-24   -23.065   -23.662    -0.597     (0)  
   FeOH+2          9.752e-25   4.666e-25   -24.011   -24.331    -0.320     (0)  
   Fe(OH)2+        6.144e-27   5.129e-27   -26.212   -26.290    -0.078     (0)  
   Fe(OH)3         1.980e-33   2.000e-33   -32.703   -32.699     0.004     (0)  
   Fe(OH)4-        7.955e-40   6.641e-40   -39.099   -39.178    -0.078     (0)  
   Fe2(OH)2+4      0.000e+00   0.000e+00   -45.917   -47.232    -1.315     (0)  
   Fe3(OH)4+5      0.000e+00   0.000e+00   -69.148   -71.202    -2.054     (0)  
H(0)          1.163e-12
   H2              5.817e-13   5.877e-13   -12.235   -12.231     0.004     (0)  
O(0)          0.000e+00
   O2              0.000e+00   0.000e+00   -67.925   -67.920     0.004     (0)  
S(-2)         7.597e-02
   H2S             7.597e-02   7.676e-02    -1.119    -1.115     0.004     (0)  
   HS-             3.567e-07   2.921e-07    -6.448    -6.534    -0.087     (0)  
   S5-2            5.264e-15   2.470e-15   -14.279   -14.607    -0.329     (0)  
   S4-2            3.071e-15   1.441e-15   -14.513   -14.841    -0.329     (0)  
   S6-2            2.725e-15   1.278e-15   -14.565   -14.893    -0.329     (0)  
   S-2             2.454e-18   1.174e-18   -17.610   -17.930    -0.320     (0)  
   Fe(HS)2         1.691e-18   1.708e-18   -17.772   -17.767     0.004     (0)  
   S3-2            1.082e-18   5.077e-19   -17.966   -18.294    -0.329     (0)  
   S2-2            6.142e-20   2.882e-20   -19.212   -19.540    -0.329     (0)  
   Fe(HS)3-        6.566e-23   5.434e-23   -22.183   -22.265    -0.082     (0)  
S(6)          2.532e-02
   HSO4-           1.563e-02   1.294e-02    -1.806    -1.888    -0.082     (0)  
   SO4-2           9.691e-03   4.436e-03    -2.014    -2.353    -0.339     (0)  
   FeSO4           1.754e-14   1.772e-14   -13.756   -13.751     0.004     (0)  
   FeSO4+          9.659e-23   8.033e-23   -22.015   -22.095    -0.080     (0)  
   Fe(SO4)2-       1.362e-23   1.127e-23   -22.866   -22.948    -0.082     (0)  

------------------------------Saturation indices-------------------------------

  Phase               SI** log IAP   log K(298 K,   1 atm)

  Fe2(SO4)3       -57.96    -54.38    3.58  Fe2(SO4)3
  Fe3(OH)8        -69.03    -48.80   20.22  Fe3(OH)8
  Ferrihydrite    -23.99    -19.10    4.89  Fe(OH)3
  FeS(ppt)        -14.75    -18.66   -3.92  FeS
  Goethite        -19.60    -19.10    0.50  FeOOH
  Greigite        -41.43    -98.00  -56.57  Fe3S4
  Hematite        -34.19    -38.19   -4.01  Fe2O3
  Jarosite-H      -55.99    -68.09  -12.10  (H3O)Fe3(SO4)2(OH)6
  Lepidocrocite   -20.47    -19.10    1.37  FeOOH
  Mackinawite     -16.52    -18.66   -2.14  FeS
  Maghemite       -44.58    -38.19    6.39  Fe2O3
  Magnetite       -52.54    -48.80    3.74  Fe3O4
  Melanterite     -13.54    -16.01   -2.47  FeSO4:7H2O
  O2(g)           -64.96     18.16   83.12  O2
  pe_fix           -3.02     -3.02    0.00  e-
  pH_fix           -1.52     -1.52    0.00  H+
  Pyrite           -0.00    -37.58  -37.58  FeS2
  Pyrrhotite      -15.42    -18.66   -3.25  FeS
  Sulfur            3.13      1.02   -2.11  S

**For a gas, SI = log10(fugacity). Fugacity = pressure * phi / 1 atm.
  For ideal gases, phi = 1.

Reaction step 110.

Using solution 1.	PURE WATER
Using pure phase assemblage 1.	
Using reaction 1.	

Reaction 1.	

	  1.000e-02 moles of the following reaction have been added:

	                 Relative
	Reactant            moles

	Fe1S3                1.00000

	                 Relative
	Element             moles
	Fe                   1.00000
	S                    3.00000

-------------------------------Phase assemblage--------------------------------

                                                      Moles in assemblage
Phase               SI  log IAP  log K(T, P)   Initial       Final       Delta

Greigite         58.72    10.70    -48.02    0.000e+00           0   0.000e+00
Mackinawite     -16.58   -18.71     -2.14    0.000e+00           0   0.000e+00
Pyrite           16.13     6.84     -9.30    1.011e-01   1.111e-01   1.000e-02
Pyrrhotite      -15.47   -18.71     -3.25    0.000e+00           0   0.000e+00

-----------------------------Solution composition------------------------------

	Elements           Molality       Moles

	Fe                6.086e-14   6.074e-14
	S                 1.113e-01   1.111e-01

----------------------------Description of solution----------------------------

                                       pH  =   1.487      Charge balance
                                       pe  =   3.059      Adjusted to redox equilibrium
                        Activity of water  =   0.997
                 Ionic strength (mol/kgw)  =   4.833e-02
                       Mass of water (kg)  =   9.980e-01
                 Total alkalinity (eq/kg)  =  -5.567e-02
                         Temperature (°C)  =  25.00
                  Electrical balance (eq)  =  -1.093e-10
 Percent error, 100*(Cat-|An|)/(Cat+|An|)  =  -0.00
                               Iterations  =   5
                                  Total H  = 1.110124e+02
                                  Total O  = 5.550622e+01

----------------------------Distribution of species----------------------------

                                               Log       Log       Log    mole V
   Species          Molality    Activity  Molality  Activity     Gamma    cm³/mol

   H+              3.808e-02   3.257e-02    -1.419    -1.487    -0.068      0.00
   OH-             3.781e-13   3.077e-13   -12.422   -12.512    -0.090     (0)  
   H2O             5.551e+01   9.975e-01     1.744    -0.001     0.000     18.07
Fe(2)         6.086e-14
   Fe+2            4.373e-14   2.127e-14   -13.359   -13.672    -0.313     (0)  
   FeSO4           1.713e-14   1.732e-14   -13.766   -13.761     0.005     (0)  
   Fe(HS)2         1.649e-18   1.667e-18   -17.783   -17.778     0.005     (0)  
   FeOH+           2.491e-22   2.060e-22   -21.604   -21.686    -0.082     (0)  
   Fe(HS)3-        6.540e-23   5.383e-23   -22.184   -22.269    -0.085     (0)  
   Fe(OH)2         5.312e-32   5.371e-32   -31.275   -31.270     0.005     (0)  
   Fe(OH)3-        0.000e+00   0.000e+00   -40.131   -40.214    -0.082     (0)  
Fe(3)         1.295e-22
   FeSO4+          1.041e-22   8.613e-23   -21.982   -22.065    -0.082     (0)  
   Fe(SO4)2-       1.515e-23   1.247e-23   -22.820   -22.904    -0.085     (0)  
   Fe+3            9.246e-24   2.261e-24   -23.034   -23.646    -0.612     (0)  
   FeOH+2          9.550e-25   4.472e-25   -24.020   -24.350    -0.330     (0)  
   Fe(OH)2+        5.461e-27   4.535e-27   -26.263   -26.343    -0.081     (0)  
   Fe(OH)3         1.614e-33   1.632e-33   -32.792   -32.787     0.005     (0)  
   Fe(OH)4-        6.019e-40   4.998e-40   -39.220   -39.301    -0.081     (0)  
   Fe2(OH)2+4      0.000e+00   0.000e+00   -45.917   -47.269    -1.352     (0)  
   Fe3(OH)4+5      0.000e+00   0.000e+00   -69.179   -71.292    -2.113     (0)  
H(0)          1.134e-12
   H2              5.671e-13   5.735e-13   -12.246   -12.241     0.005     (0)  
O(0)          0.000e+00
   O2              0.000e+00   0.000e+00   -67.904   -67.899     0.005     (0)  
S(-2)         8.350e-02
   H2S             8.350e-02   8.443e-02    -1.078    -1.073     0.005     (0)  
   HS-             3.644e-07   2.965e-07    -6.438    -6.528    -0.090     (0)  
   S5-2            5.039e-15   2.314e-15   -14.298   -14.636    -0.338     (0)  
   S4-2            2.940e-15   1.350e-15   -14.532   -14.870    -0.338     (0)  
   S6-2            2.608e-15   1.198e-15   -14.584   -14.922    -0.338     (0)  
   S-2             2.349e-18   1.100e-18   -17.629   -17.959    -0.330     (0)  
   Fe(HS)2         1.649e-18   1.667e-18   -17.783   -17.778     0.005     (0)  
   S3-2            1.036e-18   4.757e-19   -17.985   -18.323    -0.338     (0)  
   S2-2            5.880e-20   2.700e-20   -19.231   -19.569    -0.338     (0)  
   Fe(HS)3-        6.540e-23   5.383e-23   -22.184   -22.269    -0.085     (0)  
S(6)          2.783e-02
   HSO4-           1.758e-02   1.447e-02    -1.755    -1.840    -0.085     (0)  
   SO4-2           1.025e-02   4.579e-03    -1.989    -2.339    -0.350     (0)  
   FeSO4           1.713e-14   1.732e-14   -13.766   -13.761     0.005     (0)  
   FeSO4+          1.041e-22   8.613e-23   -21.982   -22.065    -0.082     (0)  
   Fe(SO4)2-       1.515e-23   1.247e-23   -22.820   -22.904    -0.085     (0)  

------------------------------Saturation indices-------------------------------

  Phase               SI** log IAP   log K(298 K,   1 atm)

  Fe2(SO4)3       -57.89    -54.31    3.58  Fe2(SO4)3
  Fe3(OH)8        -69.30    -49.07   20.22  Fe3(OH)8
  Ferrihydrite    -24.08    -19.19    4.89  Fe(OH)3
  FeS(ppt)        -14.80    -18.71   -3.92  FeS
  Goethite        -19.69    -19.19    0.50  FeOOH
  Greigite        -41.53    -98.10  -56.57  Fe3S4
  Hematite        -34.36    -38.37   -4.01  Fe2O3
  Jarosite-H      -56.09    -68.19  -12.10  (H3O)Fe3(SO4)2(OH)6
  Lepidocrocite   -20.56    -19.19    1.37  FeOOH
  Mackinawite     -16.58    -18.71   -2.14  FeS
  Maghemite       -44.76    -38.37    6.39  Fe2O3
  Magnetite       -52.81    -49.07    3.74  Fe3O4
  Melanterite     -13.55    -16.02   -2.47  FeSO4:7H2O
  O2(g)           -64.94     18.18   83.12  O2
  pe_fix           -3.06     -3.06    0.00  e-
  pH_fix           -1.49     -1.49    0.00  H+
  Pyrite           -0.00    -37.58  -37.58  FeS2
  Pyrrhotite      -15.47    -18.71   -3.25  FeS
  Sulfur            3.19      1.08   -2.11  S

**For a gas, SI = log10(fugacity). Fugacity = pressure * phi / 1 atm.
  For ideal gases, phi = 1.

------------------
End of simulation.
------------------

------------------------------------
Reading input data for simulation 9.
------------------------------------

-------------------------------
End of Run after 1.977 Seconds.
-------------------------------

