   Input file: C:\Users\jt2020\OneDrive - Imperial College London\Data\Thermodynamics\Thermodynamics\Phreeq\Reaction Progress\Changing SI\Fixed\Poly with S0 S dom with pyrr buffered SI alteration.pqi
  Output file: C:\Users\jt2020\OneDrive - Imperial College London\Data\Thermodynamics\Thermodynamics\Phreeq\Reaction Progress\Changing SI\Fixed\Poly with S0 S dom with pyrr buffered SI alteration.pqo
Database file: C:\Users\jt2020\OneDrive - Imperial College London\Data\Thermodynamics\Thermodynamics\Phreeq\Reaction Progress\All models with pyrrhotite\Database\llnlpyrrminteq.dat

------------------
Reading data base.
------------------

	SOLUTION_MASTER_SPECIES
	SOLUTION_SPECIES
	SOLUTION_SPECIES
	PHASES
	SURFACE_MASTER_SPECIES
	SURFACE_SPECIES
	END
------------------------------------
Reading input data for simulation 1.
------------------------------------

	DATABASE C:\Users\jt2020\OneDrive - Imperial College London\Data\Thermodynamics\Thermodynamics\Phreeq\Reaction Progress\All models with pyrrhotite\Database\llnlpyrrminteq.dat
	TITLE Poly buffered SI alteration
	SOLUTION 1  PURE WATER
	            pH    10.0 charge
	          temp   25
	            pe    -9.29
	PHASES
	pH_fix
	      H + = H +
	      log_k = 0.0
	pe_fix
	      e- = e-
	      log_k 0.0
	Sulfur
	    S + 2e- = S-2
	    log_k      -15.026
	    delta_h    7.9 kcal  
	Mackinawite
	    FeS + H+ = Fe+2 + HS-
	    log_k     -2.137
	    delta_h   -3.578 kcal
	Pyrrhotite
	    FeS + 2Fe+3 = 3Fe+2 + Sulfur(s)   #reaction from Belzile et al 04 pyrr oxidation reaction
	    log_k     24.9953
	    delta_h        -17.9906 kcal        
	Greigite
	    Fe3S4 = 3Mackinawite(s) + Sulfur(s)
	    log_k     -6.475
	    delta_h   37.637 kcal
	Pyrite
	    FeS2 = 0.3333333333Greigite(s) + 0.6666666666Sulfur(s)
	    log_k     -10.373
	    delta_h   7.061 kcal
	NaNO3
	    NaNO3 = Na+ + NO3-
	    log_K -20
	NaCl
	    NaCl = Cl- + Na+
	    log_k     -20
	END
-----
TITLE
-----

 Poly buffered SI alteration

-------------------------------------------
Beginning of initial solution calculations.
-------------------------------------------

Initial solution 1.	PURE WATER

-----------------------------Solution composition------------------------------

	Elements           Molality       Moles

	Pure water     

----------------------------Description of solution----------------------------

                                       pH  =   7.081      Charge balance
                                       pe  =  -9.290    
                        Activity of water  =   0.685
                 Ionic strength (mol/kgw)  =   8.299e-08
                       Mass of water (kg)  =   1.000e+00
                 Total alkalinity (eq/kg)  =   3.868e-16
                         Temperature (°C)  =  25.00
                  Electrical balance (eq)  =  -3.868e-16
 Percent error, 100*(Cat-|An|)/(Cat+|An|)  =  -0.00
                               Iterations  =  31
                                  Total H  = 1.480613e+02
                                  Total O  = 5.550622e+01

----------------------------Distribution of species----------------------------

                                               Log       Log       Log    mole V
   Species          Molality    Activity  Molality  Activity     Gamma    cm³/mol

   OH-             8.299e-08   8.296e-08    -7.081    -7.081    -0.000     (0)  
   H+              8.299e-08   8.296e-08    -7.081    -7.081    -0.000      0.00
   H2O             5.551e+01   6.851e-01     1.744    -0.164     0.000     18.07
H(0)          3.705e+01
   H2              1.852e+01   1.852e+01     1.268     1.268     0.000     (0)  
O(0)          0.000e+00
   O2              0.000e+00   0.000e+00   -95.244   -95.244     0.000     (0)  

------------------------------Saturation indices-------------------------------

  Phase               SI** log IAP   log K(298 K,   1 atm)

  O2(g)           -92.28     -9.16   83.12  O2
  pe_fix            9.29      9.29    0.00  e-
  pH_fix           -7.08     -7.08    0.00  H+

**For a gas, SI = log10(fugacity). Fugacity = pressure * phi / 1 atm.
  For ideal gases, phi = 1.

------------------
End of simulation.
------------------

------------------------------------
Reading input data for simulation 2.
------------------------------------

	INCREMENTAL_REACTIONS
	REACTION
	Fe1S3 1
	10*1e-12 10*1e-11 10*1e-10 10*1e-9 10*1e-8 10*1e-7 10*1e-6 10*1e-5 10*1e-4  10*1e-3  10*1e-2 mol
	USE solution 1
	EQUILIBRIUM_PHASES 1
	        Mackinawite     1.0     0.0 
	        Greigite        -4.0     0.0
	        Pyrite          1.0     0.0
	        Pyrrhotite      2.0     0.0
	        NaNO3           0.0     0.04
	        pH_fix          -10      HCl      10   
	        pe_fix          9.29    O2(g)     10       #-550mV
	USER_GRAPH 1 Simulation 6
	    -headings               Pyrite Greigite Mackinawite Pyrrhotite
	    -axis_titles            "Fe and S added, Log moles" "Mineral, moles"
	    -chart_title            "Pyrite pathway in a sulphur dominant system with Polysulfides as the oxidant"
	    -axis_scale sy_axis     auto auto auto auto log
	    -initial_solutions      false
	    -connect_simulations    false
	    -axis_scale y_axis      auto auto auto auto Log
	    -axis_scale sy_axis	    auto auto auto auto Log
	    -plot_concentration_vs  x
	  -start
	 5 PUT(GET(1) + RXN, 1)
	  20 PLOT_XY log10(GET(1)), EQUI("Pyrite") color = Green, line_w = 0,   	symbol = Plus, symbol_size = 5, y_axis = 2
	  30 PLOT_XY log10(GET(1)), EQUI("Greigite") color = Blue, line_w = 0,   	symbol = Plus, symbol_size = 5, y_axis = 2
	  40 PLOT_XY log10(GET(1)), EQUI("Mackinawite") color = Cyan, line_w = 0,   	symbol = Plus, symbol_size = 5, y_axis = 2
	  50 PLOT_XY log10(GET(1)), EQUI("Pyrrhotite") color = Red, line_w = 0,   	symbol = Plus, symbol_size = 5, y_axis = 2
	  -end
	    -active                 true
	SELECTED_OUTPUT
	    file                 Poly with S0 S dom with pyrr buffered SI alteration.csv
	    saturation_indices   Mackinawite  Greigite  Pyrite Pyrrhotite
	    reaction             
	    totals               Fe S 
	    equilibrium_phases   Mackinawite  Greigite  Pyrite Pyrrhotite
	END
-----------------------------------------
Beginning of batch-reaction calculations.
-----------------------------------------

Reaction step 1.

WARNING: pH_fix, Pure phase with add formula has not converged.
	 SI may be a local minimum.	Residual: 5.532581e+00

Using solution 1.	PURE WATER
Using pure phase assemblage 1.	
Using reaction 1.	

Reaction 1.	

	  1.000e-12 moles of the following reaction have been added:

	                 Relative
	Reactant            moles

	Fe1S3                1.00000

	                 Relative
	Element             moles
	Fe                   1.00000
	S                    3.00000

-------------------------------Phase assemblage--------------------------------

                                                      Moles in assemblage
Phase               SI  log IAP  log K(T, P)   Initial       Final       Delta

Greigite          6.47     0.00     -6.47    0.000e+00           0   0.000e+00
Mackinawite     -19.97   -22.11     -2.14    0.000e+00           0   0.000e+00
NaNO3           -55.64   -75.64    -20.00    4.000e-02           0  -4.000e-02
Pyrite           10.37     0.00    -10.37    0.000e+00           0   0.000e+00
Pyrrhotite        1.13    26.13     25.00    0.000e+00           0   0.000e+00
pH_fix          -12.40   -12.40      0.00
	 HCl                is reactant       1.000e+01   1.000e+01   8.274e-18
pe_fix            9.29     9.29      0.00
	 O2                 is reactant       1.000e+01   8.178e-01  -9.182e+00

-----------------------------Solution composition------------------------------

	Elements           Molality       Moles

	Cl                0.000e+00   0.000e+00
	Fe                7.506e-13   1.000e-12
	N                 3.002e-02   4.000e-02
	Na                3.002e-02   4.000e-02
	S                 2.252e-12   3.000e-12

----------------------------Description of solution----------------------------

                                       pH  =  12.403      Charge balance
                                       pe  =  -9.290      Adjusted to redox equilibrium
                        Activity of water  =   0.998
                 Ionic strength (mol/kgw)  =   3.005e-02
                       Mass of water (kg)  =   1.332e+00
                 Total alkalinity (eq/kg)  =   6.005e-02
                         Temperature (°C)  =  25.00
                  Electrical balance (eq)  =  -3.540e-16
 Percent error, 100*(Cat-|An|)/(Cat+|An|)  =  -0.00
                               Iterations  =  47
                                  Total H  = 1.480613e+02
                                  Total O  = 7.399063e+01

----------------------------Distribution of species----------------------------

                                               Log       Log       Log    mole V
   Species          Molality    Activity  Molality  Activity     Gamma    cm³/mol

   OH-             3.005e-02   2.536e-02    -1.522    -1.596    -0.074     (0)  
   H+              4.526e-13   3.956e-13   -12.344   -12.403    -0.058      0.00
   H2O             5.551e+01   9.985e-01     1.744    -0.001     0.000     18.07
Cl            0.000e+00
   Cl-             0.000e+00   0.000e+00   -44.058   -44.134    -0.075     (0)  
   FeCl+2          0.000e+00   0.000e+00   -83.217   -83.493    -0.275     (0)  
   FeCl2+          0.000e+00   0.000e+00  -126.907  -126.976    -0.069     (0)  
   FeCl3           0.000e+00   0.000e+00  -172.113  -172.110     0.003     (0)  
Fe(2)         5.781e-13
   Fe(OH)3-        5.726e-13   4.887e-13   -12.242   -12.311    -0.069     (0)  
   Fe(OH)2         5.175e-15   5.211e-15   -14.286   -14.283     0.003     (0)  
   FeOH+           2.842e-16   2.426e-16   -15.546   -15.615    -0.069     (0)  
   Fe+2            5.576e-19   3.039e-19   -18.254   -18.517    -0.264     (0)  
   FeSO4           2.403e-29   2.420e-29   -28.619   -28.616     0.003     (0)  
   Fe(HS)2         0.000e+00   0.000e+00   -41.553   -41.550     0.003     (0)  
   Fe(HS)3-        0.000e+00   0.000e+00   -55.433   -55.504    -0.071     (0)  
Fe(3)         1.725e-13
   Fe(OH)4-        1.725e-13   1.476e-13   -12.763   -12.831    -0.068     (0)  
   Fe(OH)3         5.808e-18   5.849e-18   -17.236   -17.233     0.003     (0)  
   Fe(OH)2+        2.304e-22   1.972e-22   -21.637   -21.705    -0.068     (0)  
   FeOH+2          4.447e-31   2.360e-31   -30.352   -30.627    -0.275     (0)  
   Fe+3            0.000e+00   0.000e+00   -40.313   -40.839    -0.526     (0)  
   FeSO4+          0.000e+00   0.000e+00   -49.199   -49.268    -0.069     (0)  
   Fe2(OH)2+4      0.000e+00   0.000e+00   -58.692   -59.824    -1.132     (0)  
   Fe(SO4)2-       0.000e+00   0.000e+00   -60.046   -60.117    -0.071     (0)  
   Fe3(OH)4+5      0.000e+00   0.000e+00   -77.441   -79.209    -1.769     (0)  
   FeCl+2          0.000e+00   0.000e+00   -83.217   -83.493    -0.275     (0)  
   FeCl2+          0.000e+00   0.000e+00  -126.907  -126.976    -0.069     (0)  
   FeCl3           0.000e+00   0.000e+00  -172.113  -172.110     0.003     (0)  
H(0)          8.365e-10
   H2              4.183e-10   4.212e-10    -9.379    -9.376     0.003     (0)  
N(-3)         3.002e-02
   NH3             3.000e-02   3.021e-02    -1.523    -1.520     0.003     (0)  
   NH4+            2.506e-05   2.097e-05    -4.601    -4.678    -0.077     (0)  
   NH4SO4-         1.417e-16   1.209e-16   -15.849   -15.917    -0.069     (0)  
N(3)          0.000e+00
   NO2-            0.000e+00   0.000e+00   -51.634   -51.705    -0.071     (0)  
N(5)          0.000e+00
   NO3-            0.000e+00   0.000e+00   -73.974   -74.050    -0.076     (0)  
Na            3.002e-02
   Na+             3.002e-02   2.557e-02    -1.523    -1.592    -0.070     (0)  
   NaSO4-          6.704e-14   5.738e-14   -13.174   -13.241    -0.068     (0)  
O(0)          0.000e+00
   O2              0.000e+00   0.000e+00   -73.633   -73.630     0.003     (0)  
S(-2)         1.313e-12
   S5-2            1.258e-13   6.554e-14   -12.900   -13.183    -0.283     (0)  
   S4-2            7.337e-14   3.824e-14   -13.134   -13.417    -0.283     (0)  
   S6-2            6.509e-14   3.393e-14   -13.186   -13.469    -0.283     (0)  
   HS-             1.209e-16   1.020e-16   -15.918   -15.991    -0.074     (0)  
   S-2             5.872e-17   3.115e-17   -16.231   -16.506    -0.275     (0)  
   S3-2            2.585e-17   1.347e-17   -16.587   -16.870    -0.283     (0)  
   S2-2            1.467e-18   7.648e-19   -17.833   -18.116    -0.283     (0)  
   H2S             3.505e-22   3.529e-22   -21.455   -21.452     0.003     (0)  
   Fe(HS)2         0.000e+00   0.000e+00   -41.553   -41.550     0.003     (0)  
   Fe(HS)3-        0.000e+00   0.000e+00   -55.433   -55.504    -0.071     (0)  
S(6)          9.387e-13
   SO4-2           8.715e-13   4.477e-13   -12.060   -12.349    -0.289     (0)  
   NaSO4-          6.704e-14   5.738e-14   -13.174   -13.241    -0.068     (0)  
   NH4SO4-         1.417e-16   1.209e-16   -15.849   -15.917    -0.069     (0)  
   HSO4-           2.021e-23   1.719e-23   -22.694   -22.765    -0.070     (0)  
   FeSO4           2.403e-29   2.420e-29   -28.619   -28.616     0.003     (0)  
   FeSO4+          0.000e+00   0.000e+00   -49.199   -49.268    -0.069     (0)  
   Fe(SO4)2-       0.000e+00   0.000e+00   -60.046   -60.117    -0.071     (0)  

------------------------------Saturation indices-------------------------------

  Phase               SI** log IAP   log K(298 K,   1 atm)

  Fe(OH)2.7Cl0.3  -17.55    -20.59   -3.04  Fe(OH)2.7Cl0.3
  Fe2(SO4)3      -122.31   -118.73    3.58  Fe2(SO4)3
  Fe3(OH)8        -21.20     -0.98   20.22  Fe3(OH)8
  Ferrihydrite     -8.52     -3.63    4.89  Fe(OH)3
  FeS(ppt)        -18.19    -22.11   -3.92  FeS
  Goethite         -4.13     -3.63    0.50  FeOOH
  Greigite        -73.49    -88.49  -14.99  Fe3S4
  Halite          -47.31    -45.73    1.58  NaCl
  Hematite         -3.26     -7.26   -4.01  Fe2O3
  Jarosite-H      -73.11    -85.21  -12.10  (H3O)Fe3(SO4)2(OH)6
  Jarosite-Na     -63.20    -74.40  -11.20  NaFe3(SO4)2(OH)6
  Lepidocrocite    -5.00     -3.63    1.37  FeOOH
  Mackinawite     -19.97    -22.11   -2.14  FeS
  Maghemite       -13.65     -7.26    6.39  Fe2O3
  Magnetite        -4.71     -0.98    3.74  Fe3O4
  Melanterite     -28.40    -30.87   -2.47  FeSO4:7H2O
  Mirabilite      -14.43    -15.54   -1.11  Na2SO4:10H2O
  NaCl            -25.73    -45.73  -20.00  NaCl
  NaNO3           -55.64    -75.64  -20.00  NaNO3
  O2(g)           -70.67     12.45   83.12  O2
  pe_fix            9.29      9.29    0.00  e-
  pH_fix          -12.40    -12.40    0.00  H+
  Pyrite          -27.50    -44.27  -16.78  FeS2
  Pyrrhotite      -18.93      3.96   22.89  FeS
  Sulfur          -20.06    -35.09  -15.03  S
  Thenardite      -15.35    -15.53   -0.18  Na2SO4

**For a gas, SI = log10(fugacity). Fugacity = pressure * phi / 1 atm.
  For ideal gases, phi = 1.

Reaction step 2.

Using solution 1.	PURE WATER
Using pure phase assemblage 1.	
Using reaction 1.	

Reaction 1.	

	  1.000e-12 moles of the following reaction have been added:

	                 Relative
	Reactant            moles

	Fe1S3                1.00000

	                 Relative
	Element             moles
	Fe                   1.00000
	S                    3.00000

-------------------------------Phase assemblage--------------------------------

                                                      Moles in assemblage
Phase               SI  log IAP  log K(T, P)   Initial       Final       Delta

Greigite          6.47     0.00     -6.47    0.000e+00           0   0.000e+00
Mackinawite     -13.55   -15.68     -2.14    0.000e+00           0   0.000e+00
NaNO3           -77.36   -97.36    -20.00    0.000e+00           0   0.000e+00
Pyrite           10.37     0.00    -10.37    0.000e+00           0   0.000e+00
Pyrrhotite        7.04    32.04     25.00    0.000e+00           0   0.000e+00
pH_fix          -10.00   -10.00      0.00
	 HCl                is reactant       1.000e+01   9.953e+00  -4.690e-02
pe_fix            9.29     9.29      0.00
	 O2                 is reactant       8.178e-01   8.178e-01   1.779e-05

-----------------------------Solution composition------------------------------

	Elements           Molality       Moles

	Cl                3.518e-02   4.690e-02
	Fe                1.500e-12   2.000e-12
	N                 3.001e-02   4.000e-02
	Na                3.001e-02   4.000e-02
	S                 4.501e-12   6.000e-12

----------------------------Description of solution----------------------------

                                       pH  =  10.000      Charge balance
                                       pe  =  -9.290      Adjusted to redox equilibrium
                        Activity of water  =   0.998
                 Ionic strength (mol/kgw)  =   3.530e-02
                       Mass of water (kg)  =   1.333e+00
                 Total alkalinity (eq/kg)  =   2.483e-02
                         Temperature (°C)  =  25.00
                  Electrical balance (eq)  =  -3.368e-16
 Percent error, 100*(Cat-|An|)/(Cat+|An|)  =  -0.00
                               Iterations  =  15
                                  Total H  = 1.481082e+02
                                  Total O  = 7.399060e+01

----------------------------Distribution of species----------------------------

                                               Log       Log       Log    mole V
   Species          Molality    Activity  Molality  Activity     Gamma    cm³/mol

   OH-             1.203e-04   1.003e-04    -3.920    -3.999    -0.079     (0)  
   H+              1.152e-10   1.000e-10    -9.938   -10.000    -0.062      0.00
   H2O             5.551e+01   9.984e-01     1.744    -0.001     0.000     18.07
Cl            3.518e-02
   Cl-             3.518e-02   2.924e-02    -1.454    -1.534    -0.080     (0)  
   FeCl+2          2.056e-35   1.048e-35   -34.687   -34.980    -0.293     (0)  
   FeCl2+          1.620e-36   1.368e-36   -35.791   -35.864    -0.073     (0)  
   FeCl3           3.968e-39   4.001e-39   -38.401   -38.398     0.004     (0)  
Fe(2)         1.500e-12
   FeOH+           9.306e-13   7.862e-13   -12.031   -12.104    -0.073     (0)  
   Fe+2            4.742e-13   2.490e-13   -12.324   -12.604    -0.280     (0)  
   Fe(OH)2         6.626e-14   6.681e-14   -13.179   -13.175     0.004     (0)  
   Fe(OH)3-        2.933e-14   2.478e-14   -13.533   -13.606    -0.073     (0)  
   Fe(HS)2         1.515e-30   1.527e-30   -29.820   -29.816     0.004     (0)  
   Fe(HS)3-        0.000e+00   0.000e+00   -40.785   -40.860    -0.075     (0)  
   FeSO4           0.000e+00   0.000e+00   -41.421   -41.418     0.004     (0)  
Fe(3)         3.523e-17
   Fe(OH)4-        3.494e-17   2.961e-17   -16.457   -16.529    -0.072     (0)  
   Fe(OH)3         2.942e-19   2.966e-19   -18.531   -18.528     0.004     (0)  
   Fe(OH)2+        2.983e-21   2.528e-21   -20.525   -20.597    -0.072     (0)  
   FeOH+2          1.501e-27   7.647e-28   -26.824   -27.116    -0.293     (0)  
   Fe+3            4.253e-35   1.186e-35   -34.371   -34.926    -0.554     (0)  
   FeCl+2          2.056e-35   1.048e-35   -34.687   -34.980    -0.293     (0)  
   FeCl2+          1.620e-36   1.368e-36   -35.791   -35.864    -0.073     (0)  
   FeCl3           3.968e-39   4.001e-39   -38.401   -38.398     0.004     (0)  
   Fe2(OH)2+4      0.000e+00   0.000e+00   -51.599   -52.803    -1.204     (0)  
   FeSO4+          0.000e+00   0.000e+00   -61.997   -62.070    -0.073     (0)  
   Fe3(OH)4+5      0.000e+00   0.000e+00   -69.198   -71.080    -1.882     (0)  
   Fe(SO4)2-       0.000e+00   0.000e+00   -91.559   -91.634    -0.075     (0)  
H(0)          5.339e-05
   H2              2.670e-05   2.692e-05    -4.574    -4.570     0.004     (0)  
N(-3)         3.001e-02
   NH3             2.471e-02   2.492e-02    -1.607    -1.604     0.004     (0)  
   NH4+            5.293e-03   4.372e-03    -2.276    -2.359    -0.083     (0)  
   NH4SO4-         5.753e-33   4.861e-33   -32.240   -32.313    -0.073     (0)  
N(3)          0.000e+00
   NO2-            0.000e+00   0.000e+00   -68.532   -68.608    -0.075     (0)  
N(5)          0.000e+00
   NO3-            0.000e+00   0.000e+00   -95.678   -95.758    -0.081     (0)  
Na            3.001e-02
   Na+             3.001e-02   2.529e-02    -1.523    -1.597    -0.074     (0)  
   NaSO4-          1.291e-32   1.094e-32   -31.889   -31.961    -0.072     (0)  
O(0)          0.000e+00
   O2              0.000e+00   0.000e+00   -83.245   -83.241     0.004     (0)  
S(-2)         4.501e-12
   S5-2            4.216e-13   2.108e-13   -12.375   -12.676    -0.301     (0)  
   S4-2            2.460e-13   1.230e-13   -12.609   -12.910    -0.301     (0)  
   S6-2            2.182e-13   1.091e-13   -12.661   -12.962    -0.301     (0)  
   HS-             9.945e-14   8.295e-14   -13.002   -13.081    -0.079     (0)  
   S-2             1.967e-16   1.002e-16   -15.706   -15.999    -0.293     (0)  
   S3-2            8.667e-17   4.333e-17   -16.062   -16.363    -0.301     (0)  
   H2S             7.194e-17   7.253e-17   -16.143   -16.140     0.004     (0)  
   S2-2            4.919e-18   2.459e-18   -17.308   -17.609    -0.301     (0)  
   Fe(HS)2         1.515e-30   1.527e-30   -29.820   -29.816     0.004     (0)  
   Fe(HS)3-        0.000e+00   0.000e+00   -40.785   -40.860    -0.075     (0)  
S(6)          1.944e-31
   SO4-2           1.757e-31   8.630e-32   -30.755   -31.064    -0.309     (0)  
   NaSO4-          1.291e-32   1.094e-32   -31.889   -31.961    -0.072     (0)  
   NH4SO4-         5.753e-33   4.861e-33   -32.240   -32.313    -0.073     (0)  
   HSO4-           9.953e-40   8.374e-40   -39.002   -39.077    -0.075     (0)  
   FeSO4           0.000e+00   0.000e+00   -41.421   -41.418     0.004     (0)  
   FeSO4+          0.000e+00   0.000e+00   -61.997   -62.070    -0.073     (0)  
   Fe(SO4)2-       0.000e+00   0.000e+00   -91.559   -91.634    -0.075     (0)  

------------------------------Saturation indices-------------------------------

  Phase               SI** log IAP   log K(298 K,   1 atm)

  Fe(OH)2.7Cl0.3   -5.35     -8.39   -3.04  Fe(OH)2.7Cl0.3
  Fe2(SO4)3      -166.62   -163.04    3.58  Fe2(SO4)3
  Fe3(OH)8        -22.68     -2.46   20.22  Fe3(OH)8
  Ferrihydrite     -9.82     -4.93    4.89  Fe(OH)3
  FeS(ppt)        -11.77    -15.68   -3.92  FeS
  Goethite         -5.43     -4.93    0.50  FeOOH
  Greigite        -53.72    -68.72  -14.99  Fe3S4
  Halite           -4.71     -3.13    1.58  NaCl
  Hematite         -5.85     -9.85   -4.01  Fe2O3
  Jarosite-H     -104.81   -116.91  -12.10  (H3O)Fe3(SO4)2(OH)6
  Jarosite-Na     -97.31   -108.51  -11.20  NaFe3(SO4)2(OH)6
  Lepidocrocite    -6.30     -4.93    1.37  FeOOH
  Mackinawite     -13.55    -15.68   -2.14  FeS
  Maghemite       -16.24     -9.85    6.39  Fe2O3
  Magnetite        -6.20     -2.46    3.74  Fe3O4
  Melanterite     -41.20    -43.67   -2.47  FeSO4:7H2O
  Mirabilite      -33.15    -34.27   -1.11  Na2SO4:10H2O
  NaCl             16.87     -3.13  -20.00  NaCl
  NaNO3           -77.36    -97.36  -20.00  NaNO3
  O2(g)           -80.28      2.84   83.12  O2
  pe_fix            9.29      9.29    0.00  e-
  pH_fix          -10.00    -10.00    0.00  H+
  Pyrite          -20.57    -37.35  -16.78  FeS2
  Pyrrhotite      -12.51     10.38   22.89  FeS
  Sulfur          -19.55    -34.58  -15.03  S
  Thenardite      -34.08    -34.26   -0.18  Na2SO4

**For a gas, SI = log10(fugacity). Fugacity = pressure * phi / 1 atm.
  For ideal gases, phi = 1.

Reaction step 3.

Using solution 1.	PURE WATER
Using pure phase assemblage 1.	
Using reaction 1.	

Reaction 1.	

	  1.000e-12 moles of the following reaction have been added:

	                 Relative
	Reactant            moles

	Fe1S3                1.00000

	                 Relative
	Element             moles
	Fe                   1.00000
	S                    3.00000

-------------------------------Phase assemblage--------------------------------

                                                      Moles in assemblage
Phase               SI  log IAP  log K(T, P)   Initial       Final       Delta

Greigite          6.47     0.00     -6.47    0.000e+00           0   0.000e+00
Mackinawite     -13.20   -15.33     -2.14    0.000e+00           0   0.000e+00
NaNO3           -77.36   -97.36    -20.00    0.000e+00           0   0.000e+00
Pyrite           10.37     0.00    -10.37    0.000e+00           0   0.000e+00
Pyrrhotite        7.22    32.22     25.00    0.000e+00           0   0.000e+00
pH_fix          -10.00   -10.00      0.00
	 HCl                is reactant       9.953e+00   9.953e+00  -8.882e-15
pe_fix            9.29     9.29      0.00
	 O2                 is reactant       8.178e-01   8.178e-01  -1.784e-13

-----------------------------Solution composition------------------------------

	Elements           Molality       Moles

	Cl                3.518e-02   4.690e-02
	Fe                2.251e-12   3.000e-12
	N                 3.001e-02   4.000e-02
	Na                3.001e-02   4.000e-02
	S                 6.752e-12   9.000e-12

----------------------------Description of solution----------------------------

                                       pH  =  10.000      Charge balance
                                       pe  =  -9.290      Adjusted to redox equilibrium
                        Activity of water  =   0.998
                 Ionic strength (mol/kgw)  =   3.530e-02
                       Mass of water (kg)  =   1.333e+00
                 Total alkalinity (eq/kg)  =   2.483e-02
                         Temperature (°C)  =  25.00
                  Electrical balance (eq)  =  -3.344e-16
 Percent error, 100*(Cat-|An|)/(Cat+|An|)  =  -0.00
                               Iterations  =   4
                                  Total H  = 1.481082e+02
                                  Total O  = 7.399060e+01

----------------------------Distribution of species----------------------------

                                               Log       Log       Log    mole V
   Species          Molality    Activity  Molality  Activity     Gamma    cm³/mol

   OH-             1.203e-04   1.003e-04    -3.920    -3.999    -0.079     (0)  
   H+              1.152e-10   1.000e-10    -9.938   -10.000    -0.062      0.00
   H2O             5.551e+01   9.984e-01     1.744    -0.001     0.000     18.07
Cl            3.518e-02
   Cl-             3.518e-02   2.924e-02    -1.454    -1.534    -0.080     (0)  
   FeCl+2          3.085e-35   1.571e-35   -34.511   -34.804    -0.293     (0)  
   FeCl2+          2.429e-36   2.052e-36   -35.615   -35.688    -0.073     (0)  
   FeCl3           5.952e-39   6.001e-39   -38.225   -38.222     0.004     (0)  
Fe(2)         2.250e-12
   FeOH+           1.396e-12   1.179e-12   -11.855   -11.928    -0.073     (0)  
   Fe+2            7.113e-13   3.735e-13   -12.148   -12.428    -0.280     (0)  
   Fe(OH)2         9.940e-14   1.002e-13   -13.003   -12.999     0.004     (0)  
   Fe(OH)3-        4.400e-14   3.717e-14   -13.357   -13.430    -0.073     (0)  
   Fe(HS)2         5.112e-30   5.154e-30   -29.291   -29.288     0.004     (0)  
   Fe(HS)3-        0.000e+00   0.000e+00   -40.081   -40.156    -0.075     (0)  
   FeSO4           0.000e+00   0.000e+00   -41.069   -41.066     0.004     (0)  
Fe(3)         5.285e-17
   Fe(OH)4-        5.240e-17   4.441e-17   -16.281   -16.353    -0.072     (0)  
   Fe(OH)3         4.412e-19   4.448e-19   -18.355   -18.352     0.004     (0)  
   Fe(OH)2+        4.475e-21   3.792e-21   -20.349   -20.421    -0.072     (0)  
   FeOH+2          2.252e-27   1.147e-27   -26.647   -26.940    -0.293     (0)  
   Fe+3            6.379e-35   1.780e-35   -34.195   -34.750    -0.554     (0)  
   FeCl+2          3.085e-35   1.571e-35   -34.511   -34.804    -0.293     (0)  
   FeCl2+          2.429e-36   2.052e-36   -35.615   -35.688    -0.073     (0)  
   FeCl3           5.952e-39   6.001e-39   -38.225   -38.222     0.004     (0)  
   Fe2(OH)2+4      0.000e+00   0.000e+00   -51.247   -52.451    -1.204     (0)  
   FeSO4+          0.000e+00   0.000e+00   -61.644   -61.718    -0.073     (0)  
   Fe3(OH)4+5      0.000e+00   0.000e+00   -68.670   -70.552    -1.882     (0)  
   Fe(SO4)2-       0.000e+00   0.000e+00   -91.030   -91.106    -0.075     (0)  
H(0)          5.339e-05
   H2              2.670e-05   2.692e-05    -4.574    -4.570     0.004     (0)  
N(-3)         3.001e-02
   NH3             2.471e-02   2.492e-02    -1.607    -1.604     0.004     (0)  
   NH4+            5.293e-03   4.372e-03    -2.276    -2.359    -0.083     (0)  
   NH4SO4-         8.630e-33   7.291e-33   -32.064   -32.137    -0.073     (0)  
N(3)          0.000e+00
   NO2-            0.000e+00   0.000e+00   -68.532   -68.608    -0.075     (0)  
N(5)          0.000e+00
   NO3-            0.000e+00   0.000e+00   -95.678   -95.758    -0.081     (0)  
Na            3.001e-02
   Na+             3.001e-02   2.529e-02    -1.523    -1.597    -0.074     (0)  
   NaSO4-          1.936e-32   1.641e-32   -31.713   -31.785    -0.072     (0)  
O(0)          0.000e+00
   O2              0.000e+00   0.000e+00   -83.245   -83.241     0.004     (0)  
S(-2)         6.752e-12
   S5-2            6.324e-13   3.162e-13   -12.199   -12.500    -0.301     (0)  
   S4-2            3.690e-13   1.845e-13   -12.433   -12.734    -0.301     (0)  
   S6-2            3.273e-13   1.636e-13   -12.485   -12.786    -0.301     (0)  
   HS-             1.492e-13   1.244e-13   -12.826   -12.905    -0.079     (0)  
   S-2             2.950e-16   1.503e-16   -15.530   -15.823    -0.293     (0)  
   S3-2            1.300e-16   6.500e-17   -15.886   -16.187    -0.301     (0)  
   H2S             1.079e-16   1.088e-16   -15.967   -15.963     0.004     (0)  
   S2-2            7.379e-18   3.689e-18   -17.132   -17.433    -0.301     (0)  
   Fe(HS)2         5.112e-30   5.154e-30   -29.291   -29.288     0.004     (0)  
   Fe(HS)3-        0.000e+00   0.000e+00   -40.081   -40.156    -0.075     (0)  
S(6)          2.916e-31
   SO4-2           2.636e-31   1.294e-31   -30.579   -30.888    -0.309     (0)  
   NaSO4-          1.936e-32   1.641e-32   -31.713   -31.785    -0.072     (0)  
   NH4SO4-         8.630e-33   7.291e-33   -32.064   -32.137    -0.073     (0)  
   HSO4-           1.493e-39   1.256e-39   -38.826   -38.901    -0.075     (0)  
   FeSO4           0.000e+00   0.000e+00   -41.069   -41.066     0.004     (0)  
   FeSO4+          0.000e+00   0.000e+00   -61.644   -61.718    -0.073     (0)  
   Fe(SO4)2-       0.000e+00   0.000e+00   -91.030   -91.106    -0.075     (0)  

------------------------------Saturation indices-------------------------------

  Phase               SI** log IAP   log K(298 K,   1 atm)

  Fe(OH)2.7Cl0.3   -5.17     -8.21   -3.04  Fe(OH)2.7Cl0.3
  Fe2(SO4)3      -165.74   -162.16    3.58  Fe2(SO4)3
  Fe3(OH)8        -22.15     -1.93   20.22  Fe3(OH)8
  Ferrihydrite     -9.64     -4.75    4.89  Fe(OH)3
  FeS(ppt)        -11.42    -15.33   -3.92  FeS
  Goethite         -5.25     -4.75    0.50  FeOOH
  Greigite        -52.49    -67.48  -14.99  Fe3S4
  Halite           -4.71     -3.13    1.58  NaCl
  Hematite         -5.49     -9.50   -4.01  Fe2O3
  Jarosite-H     -103.93   -116.03  -12.10  (H3O)Fe3(SO4)2(OH)6
  Jarosite-Na     -96.43   -107.63  -11.20  NaFe3(SO4)2(OH)6
  Lepidocrocite    -6.12     -4.75    1.37  FeOOH
  Mackinawite     -13.20    -15.33   -2.14  FeS
  Maghemite       -15.89     -9.50    6.39  Fe2O3
  Magnetite        -5.67     -1.93    3.74  Fe3O4
  Melanterite     -40.85    -43.32   -2.47  FeSO4:7H2O
  Mirabilite      -32.97    -34.09   -1.11  Na2SO4:10H2O
  NaCl             16.87     -3.13  -20.00  NaCl
  NaNO3           -77.36    -97.36  -20.00  NaNO3
  O2(g)           -80.28      2.84   83.12  O2
  pe_fix            9.29      9.29    0.00  e-
  pH_fix          -10.00    -10.00    0.00  H+
  Pyrite          -20.04    -36.82  -16.78  FeS2
  Pyrrhotite      -12.16     10.73   22.89  FeS
  Sulfur          -19.38    -34.40  -15.03  S
  Thenardite      -33.90    -34.08   -0.18  Na2SO4

**For a gas, SI = log10(fugacity). Fugacity = pressure * phi / 1 atm.
  For ideal gases, phi = 1.

Reaction step 4.

Using solution 1.	PURE WATER
Using pure phase assemblage 1.	
Using reaction 1.	

Reaction 1.	

	  1.000e-12 moles of the following reaction have been added:

	                 Relative
	Reactant            moles

	Fe1S3                1.00000

	                 Relative
	Element             moles
	Fe                   1.00000
	S                    3.00000

-------------------------------Phase assemblage--------------------------------

                                                      Moles in assemblage
Phase               SI  log IAP  log K(T, P)   Initial       Final       Delta

Greigite          6.47     0.00     -6.47    0.000e+00           0   0.000e+00
Mackinawite     -12.95   -15.08     -2.14    0.000e+00           0   0.000e+00
NaNO3           -77.36   -97.36    -20.00    0.000e+00           0   0.000e+00
Pyrite           10.37     0.00    -10.37    0.000e+00           0   0.000e+00
Pyrrhotite        7.35    32.34     25.00    0.000e+00           0   0.000e+00
pH_fix          -10.00   -10.00      0.00
	 HCl                is reactant       9.953e+00   9.953e+00  -8.882e-15
pe_fix            9.29     9.29      0.00
	 O2                 is reactant       8.178e-01   8.178e-01  -1.700e-13

-----------------------------Solution composition------------------------------

	Elements           Molality       Moles

	Cl                3.518e-02   4.690e-02
	Fe                3.001e-12   4.000e-12
	N                 3.001e-02   4.000e-02
	Na                3.001e-02   4.000e-02
	S                 9.002e-12   1.200e-11

----------------------------Description of solution----------------------------

                                       pH  =  10.000      Charge balance
                                       pe  =  -9.290      Adjusted to redox equilibrium
                        Activity of water  =   0.998
                 Ionic strength (mol/kgw)  =   3.530e-02
                       Mass of water (kg)  =   1.333e+00
                 Total alkalinity (eq/kg)  =   2.483e-02
                         Temperature (°C)  =  25.00
                  Electrical balance (eq)  =  -3.250e-16
 Percent error, 100*(Cat-|An|)/(Cat+|An|)  =  -0.00
                               Iterations  =   4
                                  Total H  = 1.481082e+02
                                  Total O  = 7.399060e+01

----------------------------Distribution of species----------------------------

                                               Log       Log       Log    mole V
   Species          Molality    Activity  Molality  Activity     Gamma    cm³/mol

   OH-             1.203e-04   1.003e-04    -3.920    -3.999    -0.079     (0)  
   H+              1.152e-10   1.000e-10    -9.938   -10.000    -0.062      0.00
   H2O             5.551e+01   9.984e-01     1.744    -0.001     0.000     18.07
Cl            3.518e-02
   Cl-             3.518e-02   2.924e-02    -1.454    -1.534    -0.080     (0)  
   FeCl+2          4.113e-35   2.095e-35   -34.386   -34.679    -0.293     (0)  
   FeCl2+          3.239e-36   2.736e-36   -35.490   -35.563    -0.073     (0)  
   FeCl3           7.937e-39   8.001e-39   -38.100   -38.097     0.004     (0)  
Fe(2)         3.001e-12
   FeOH+           1.861e-12   1.572e-12   -11.730   -11.803    -0.073     (0)  
   Fe+2            9.483e-13   4.980e-13   -12.023   -12.303    -0.280     (0)  
   Fe(OH)2         1.325e-13   1.336e-13   -12.878   -12.874     0.004     (0)  
   Fe(OH)3-        5.866e-14   4.956e-14   -13.232   -13.305    -0.073     (0)  
   Fe(HS)2         1.212e-29   1.222e-29   -28.917   -28.913     0.004     (0)  
   Fe(HS)3-        2.624e-40   2.207e-40   -39.581   -39.656    -0.075     (0)  
   FeSO4           0.000e+00   0.000e+00   -40.819   -40.816     0.004     (0)  
Fe(3)         7.047e-17
   Fe(OH)4-        6.987e-17   5.921e-17   -16.156   -16.228    -0.072     (0)  
   Fe(OH)3         5.883e-19   5.931e-19   -18.230   -18.227     0.004     (0)  
   Fe(OH)2+        5.966e-21   5.056e-21   -20.224   -20.296    -0.072     (0)  
   FeOH+2          3.002e-27   1.529e-27   -26.523   -26.815    -0.293     (0)  
   Fe+3            8.506e-35   2.373e-35   -34.070   -34.625    -0.554     (0)  
   FeCl+2          4.113e-35   2.095e-35   -34.386   -34.679    -0.293     (0)  
   FeCl2+          3.239e-36   2.736e-36   -35.490   -35.563    -0.073     (0)  
   FeCl3           7.937e-39   8.001e-39   -38.100   -38.097     0.004     (0)  
   Fe2(OH)2+4      0.000e+00   0.000e+00   -50.997   -52.201    -1.204     (0)  
   FeSO4+          0.000e+00   0.000e+00   -61.394   -61.468    -0.073     (0)  
   Fe3(OH)4+5      0.000e+00   0.000e+00   -68.295   -70.177    -1.882     (0)  
   Fe(SO4)2-       0.000e+00   0.000e+00   -90.655   -90.731    -0.075     (0)  
H(0)          5.339e-05
   H2              2.670e-05   2.692e-05    -4.574    -4.570     0.004     (0)  
N(-3)         3.001e-02
   NH3             2.471e-02   2.492e-02    -1.607    -1.604     0.004     (0)  
   NH4+            5.293e-03   4.372e-03    -2.276    -2.359    -0.083     (0)  
   NH4SO4-         1.151e-32   9.721e-33   -31.939   -32.012    -0.073     (0)  
N(3)          0.000e+00
   NO2-            0.000e+00   0.000e+00   -68.532   -68.608    -0.075     (0)  
N(5)          0.000e+00
   NO3-            0.000e+00   0.000e+00   -95.678   -95.758    -0.081     (0)  
Na            3.001e-02
   Na+             3.001e-02   2.529e-02    -1.523    -1.597    -0.074     (0)  
   NaSO4-          2.582e-32   2.188e-32   -31.588   -31.660    -0.072     (0)  
O(0)          0.000e+00
   O2              0.000e+00   0.000e+00   -83.245   -83.241     0.004     (0)  
S(-2)         9.002e-12
   S5-2            8.432e-13   4.215e-13   -12.074   -12.375    -0.301     (0)  
   S4-2            4.919e-13   2.459e-13   -12.308   -12.609    -0.301     (0)  
   S6-2            4.364e-13   2.182e-13   -12.360   -12.661    -0.301     (0)  
   HS-             1.989e-13   1.659e-13   -12.701   -12.780    -0.079     (0)  
   S-2             3.933e-16   2.004e-16   -15.405   -15.698    -0.293     (0)  
   S3-2            1.733e-16   8.666e-17   -15.761   -16.062    -0.301     (0)  
   H2S             1.439e-16   1.451e-16   -15.842   -15.838     0.004     (0)  
   S2-2            9.838e-18   4.919e-18   -17.007   -17.308    -0.301     (0)  
   Fe(HS)2         1.212e-29   1.222e-29   -28.917   -28.913     0.004     (0)  
   Fe(HS)3-        2.624e-40   2.207e-40   -39.581   -39.656    -0.075     (0)  
S(6)          3.888e-31
   SO4-2           3.514e-31   1.726e-31   -30.454   -30.763    -0.309     (0)  
   NaSO4-          2.582e-32   2.188e-32   -31.588   -31.660    -0.072     (0)  
   NH4SO4-         1.151e-32   9.721e-33   -31.939   -32.012    -0.073     (0)  
   HSO4-           1.991e-39   1.675e-39   -38.701   -38.776    -0.075     (0)  
   FeSO4           0.000e+00   0.000e+00   -40.819   -40.816     0.004     (0)  
   FeSO4+          0.000e+00   0.000e+00   -61.394   -61.468    -0.073     (0)  
   Fe(SO4)2-       0.000e+00   0.000e+00   -90.655   -90.731    -0.075     (0)  

------------------------------Saturation indices-------------------------------

  Phase               SI** log IAP   log K(298 K,   1 atm)

  Fe(OH)2.7Cl0.3   -5.05     -8.09   -3.04  Fe(OH)2.7Cl0.3
  Fe2(SO4)3      -165.12   -161.54    3.58  Fe2(SO4)3
  Fe3(OH)8        -21.78     -1.56   20.22  Fe3(OH)8
  Ferrihydrite     -9.52     -4.63    4.89  Fe(OH)3
  FeS(ppt)        -11.17    -15.08   -3.92  FeS
  Goethite         -5.13     -4.63    0.50  FeOOH
  Greigite        -51.61    -66.61  -14.99  Fe3S4
  Halite           -4.71     -3.13    1.58  NaCl
  Hematite         -5.24     -9.25   -4.01  Fe2O3
  Jarosite-H     -103.31   -115.41  -12.10  (H3O)Fe3(SO4)2(OH)6
  Jarosite-Na     -95.80   -107.00  -11.20  NaFe3(SO4)2(OH)6
  Lepidocrocite    -6.00     -4.63    1.37  FeOOH
  Mackinawite     -12.95    -15.08   -2.14  FeS
  Maghemite       -15.64     -9.25    6.39  Fe2O3
  Magnetite        -5.29     -1.56    3.74  Fe3O4
  Melanterite     -40.60    -43.07   -2.47  FeSO4:7H2O
  Mirabilite      -32.85    -33.96   -1.11  Na2SO4:10H2O
  NaCl             16.87     -3.13  -20.00  NaCl
  NaNO3           -77.36    -97.36  -20.00  NaNO3
  O2(g)           -80.28      2.84   83.12  O2
  pe_fix            9.29      9.29    0.00  e-
  pH_fix          -10.00    -10.00    0.00  H+
  Pyrite          -19.67    -36.44  -16.78  FeS2
  Pyrrhotite      -11.91     10.98   22.89  FeS
  Sulfur          -19.25    -34.28  -15.03  S
  Thenardite      -33.78    -33.96   -0.18  Na2SO4

**For a gas, SI = log10(fugacity). Fugacity = pressure * phi / 1 atm.
  For ideal gases, phi = 1.

Reaction step 5.

Using solution 1.	PURE WATER
Using pure phase assemblage 1.	
Using reaction 1.	

Reaction 1.	

	  1.000e-12 moles of the following reaction have been added:

	                 Relative
	Reactant            moles

	Fe1S3                1.00000

	                 Relative
	Element             moles
	Fe                   1.00000
	S                    3.00000

-------------------------------Phase assemblage--------------------------------

                                                      Moles in assemblage
Phase               SI  log IAP  log K(T, P)   Initial       Final       Delta

Greigite          6.47     0.00     -6.47    0.000e+00           0   0.000e+00
Mackinawite     -12.75   -14.89     -2.14    0.000e+00           0   0.000e+00
NaNO3           -77.36   -97.36    -20.00    0.000e+00           0   0.000e+00
Pyrite           10.37     0.00    -10.37    0.000e+00           0   0.000e+00
Pyrrhotite        7.44    32.44     25.00    0.000e+00           0   0.000e+00
pH_fix          -10.00   -10.00      0.00
	 HCl                is reactant       9.953e+00   9.953e+00  -8.882e-15
pe_fix            9.29     9.29      0.00
	 O2                 is reactant       8.178e-01   8.178e-01  -1.759e-13

-----------------------------Solution composition------------------------------

	Elements           Molality       Moles

	Cl                3.518e-02   4.690e-02
	Fe                3.751e-12   5.000e-12
	N                 3.001e-02   4.000e-02
	Na                3.001e-02   4.000e-02
	S                 1.125e-11   1.500e-11

----------------------------Description of solution----------------------------

                                       pH  =  10.000      Charge balance
                                       pe  =  -9.290      Adjusted to redox equilibrium
                        Activity of water  =   0.998
                 Ionic strength (mol/kgw)  =   3.530e-02
                       Mass of water (kg)  =   1.333e+00
                 Total alkalinity (eq/kg)  =   2.483e-02
                         Temperature (°C)  =  25.00
                  Electrical balance (eq)  =  -3.015e-16
 Percent error, 100*(Cat-|An|)/(Cat+|An|)  =  -0.00
                               Iterations  =   3
                                  Total H  = 1.481082e+02
                                  Total O  = 7.399060e+01

----------------------------Distribution of species----------------------------

                                               Log       Log       Log    mole V
   Species          Molality    Activity  Molality  Activity     Gamma    cm³/mol

   OH-             1.203e-04   1.003e-04    -3.920    -3.999    -0.079     (0)  
   H+              1.152e-10   1.000e-10    -9.938   -10.000    -0.062      0.00
   H2O             5.551e+01   9.984e-01     1.744    -0.001     0.000     18.07
Cl            3.518e-02
   Cl-             3.518e-02   2.924e-02    -1.454    -1.534    -0.080     (0)  
   FeCl+2          5.141e-35   2.619e-35   -34.289   -34.582    -0.293     (0)  
   FeCl2+          4.049e-36   3.421e-36   -35.393   -35.466    -0.073     (0)  
   FeCl3           9.921e-39   1.000e-38   -38.003   -38.000     0.004     (0)  
Fe(2)         3.751e-12
   FeOH+           2.326e-12   1.965e-12   -11.633   -11.707    -0.073     (0)  
   Fe+2            1.185e-12   6.225e-13   -11.926   -12.206    -0.280     (0)  
   Fe(OH)2         1.657e-13   1.670e-13   -12.781   -12.777     0.004     (0)  
   Fe(OH)3-        7.333e-14   6.195e-14   -13.135   -13.208    -0.073     (0)  
   Fe(HS)2         2.367e-29   2.386e-29   -28.626   -28.622     0.004     (0)  
   Fe(HS)3-        6.407e-40   5.388e-40   -39.193   -39.269    -0.075     (0)  
   FeSO4           0.000e+00   0.000e+00   -40.625   -40.622     0.004     (0)  
Fe(3)         8.808e-17
   Fe(OH)4-        8.734e-17   7.402e-17   -16.059   -16.131    -0.072     (0)  
   Fe(OH)3         7.354e-19   7.414e-19   -18.133   -18.130     0.004     (0)  
   Fe(OH)2+        7.458e-21   6.320e-21   -20.127   -20.199    -0.072     (0)  
   FeOH+2          3.753e-27   1.912e-27   -26.426   -26.719    -0.293     (0)  
   Fe+3            1.063e-34   2.966e-35   -33.973   -34.528    -0.554     (0)  
   FeCl+2          5.141e-35   2.619e-35   -34.289   -34.582    -0.293     (0)  
   FeCl2+          4.049e-36   3.421e-36   -35.393   -35.466    -0.073     (0)  
   FeCl3           9.921e-39   1.000e-38   -38.003   -38.000     0.004     (0)  
   Fe2(OH)2+4      0.000e+00   0.000e+00   -50.803   -52.007    -1.204     (0)  
   FeSO4+          0.000e+00   0.000e+00   -61.201   -61.274    -0.073     (0)  
   Fe3(OH)4+5      0.000e+00   0.000e+00   -68.005   -69.886    -1.882     (0)  
   Fe(SO4)2-       0.000e+00   0.000e+00   -90.365   -90.440    -0.075     (0)  
H(0)          5.339e-05
   H2              2.670e-05   2.692e-05    -4.574    -4.570     0.004     (0)  
N(-3)         3.001e-02
   NH3             2.471e-02   2.492e-02    -1.607    -1.604     0.004     (0)  
   NH4+            5.293e-03   4.372e-03    -2.276    -2.359    -0.083     (0)  
   NH4SO4-         1.438e-32   1.215e-32   -31.842   -31.915    -0.073     (0)  
N(3)          0.000e+00
   NO2-            0.000e+00   0.000e+00   -68.532   -68.608    -0.075     (0)  
N(5)          0.000e+00
   NO3-            0.000e+00   0.000e+00   -95.678   -95.758    -0.081     (0)  
Na            3.001e-02
   Na+             3.001e-02   2.529e-02    -1.523    -1.597    -0.074     (0)  
   NaSO4-          3.227e-32   2.735e-32   -31.491   -31.563    -0.072     (0)  
O(0)          0.000e+00
   O2              0.000e+00   0.000e+00   -83.245   -83.241     0.004     (0)  
S(-2)         1.125e-11
   S5-2            1.054e-12   5.269e-13   -11.977   -12.278    -0.301     (0)  
   S4-2            6.149e-13   3.074e-13   -12.211   -12.512    -0.301     (0)  
   S6-2            5.455e-13   2.727e-13   -12.263   -12.564    -0.301     (0)  
   HS-             2.486e-13   2.074e-13   -12.604   -12.683    -0.079     (0)  
   S-2             4.917e-16   2.505e-16   -15.308   -15.601    -0.293     (0)  
   S3-2            2.167e-16   1.083e-16   -15.664   -15.965    -0.301     (0)  
   H2S             1.798e-16   1.813e-16   -15.745   -15.742     0.004     (0)  
   S2-2            1.230e-17   6.148e-18   -16.910   -17.211    -0.301     (0)  
   Fe(HS)2         2.367e-29   2.386e-29   -28.626   -28.622     0.004     (0)  
   Fe(HS)3-        6.407e-40   5.388e-40   -39.193   -39.269    -0.075     (0)  
S(6)          4.860e-31
   SO4-2           4.393e-31   2.157e-31   -30.357   -30.666    -0.309     (0)  
   NaSO4-          3.227e-32   2.735e-32   -31.491   -31.563    -0.072     (0)  
   NH4SO4-         1.438e-32   1.215e-32   -31.842   -31.915    -0.073     (0)  
   HSO4-           2.488e-39   2.094e-39   -38.604   -38.679    -0.075     (0)  
   FeSO4           0.000e+00   0.000e+00   -40.625   -40.622     0.004     (0)  
   FeSO4+          0.000e+00   0.000e+00   -61.201   -61.274    -0.073     (0)  
   Fe(SO4)2-       0.000e+00   0.000e+00   -90.365   -90.440    -0.075     (0)  

------------------------------Saturation indices-------------------------------

  Phase               SI** log IAP   log K(298 K,   1 atm)

  Fe(OH)2.7Cl0.3   -4.95     -7.99   -3.04  Fe(OH)2.7Cl0.3
  Fe2(SO4)3      -164.63   -161.05    3.58  Fe2(SO4)3
  Fe3(OH)8        -21.49     -1.27   20.22  Fe3(OH)8
  Ferrihydrite     -9.42     -4.53    4.89  Fe(OH)3
  FeS(ppt)        -10.97    -14.89   -3.92  FeS
  Goethite         -5.03     -4.53    0.50  FeOOH
  Greigite        -50.94    -65.93  -14.99  Fe3S4
  Halite           -4.71     -3.13    1.58  NaCl
  Hematite         -5.05     -9.06   -4.01  Fe2O3
  Jarosite-H     -102.82   -114.92  -12.10  (H3O)Fe3(SO4)2(OH)6
  Jarosite-Na     -95.32   -106.52  -11.20  NaFe3(SO4)2(OH)6
  Lepidocrocite    -5.90     -4.53    1.37  FeOOH
  Mackinawite     -12.75    -14.89   -2.14  FeS
  Maghemite       -15.44     -9.06    6.39  Fe2O3
  Magnetite        -5.00     -1.26    3.74  Fe3O4
  Melanterite     -40.41    -42.88   -2.47  FeSO4:7H2O
  Mirabilite      -32.75    -33.87   -1.11  Na2SO4:10H2O
  NaCl             16.87     -3.13  -20.00  NaCl
  NaNO3           -77.36    -97.36  -20.00  NaNO3
  O2(g)           -80.28      2.84   83.12  O2
  pe_fix            9.29      9.29    0.00  e-
  pH_fix          -10.00    -10.00    0.00  H+
  Pyrite          -19.38    -36.15  -16.78  FeS2
  Pyrrhotite      -11.71     11.17   22.89  FeS
  Sulfur          -19.16    -34.18  -15.03  S
  Thenardite      -33.68    -33.86   -0.18  Na2SO4

**For a gas, SI = log10(fugacity). Fugacity = pressure * phi / 1 atm.
  For ideal gases, phi = 1.

Reaction step 6.

Using solution 1.	PURE WATER
Using pure phase assemblage 1.	
Using reaction 1.	

Reaction 1.	

	  1.000e-12 moles of the following reaction have been added:

	                 Relative
	Reactant            moles

	Fe1S3                1.00000

	                 Relative
	Element             moles
	Fe                   1.00000
	S                    3.00000

-------------------------------Phase assemblage--------------------------------

                                                      Moles in assemblage
Phase               SI  log IAP  log K(T, P)   Initial       Final       Delta

Greigite          6.47     0.00     -6.47    0.000e+00           0   0.000e+00
Mackinawite     -12.59   -14.73     -2.14    0.000e+00           0   0.000e+00
NaNO3           -77.36   -97.36    -20.00    0.000e+00           0   0.000e+00
Pyrite           10.37     0.00    -10.37    0.000e+00           0   0.000e+00
Pyrrhotite        7.52    32.52     25.00    0.000e+00           0   0.000e+00
pH_fix          -10.00   -10.00      0.00
	 HCl                is reactant       9.953e+00   9.953e+00  -8.882e-15
pe_fix            9.29     9.29      0.00
	 O2                 is reactant       8.178e-01   8.178e-01  -1.745e-13

-----------------------------Solution composition------------------------------

	Elements           Molality       Moles

	Cl                3.518e-02   4.690e-02
	Fe                4.501e-12   6.000e-12
	N                 3.001e-02   4.000e-02
	Na                3.001e-02   4.000e-02
	S                 1.350e-11   1.800e-11

----------------------------Description of solution----------------------------

                                       pH  =  10.000      Charge balance
                                       pe  =  -9.290      Adjusted to redox equilibrium
                        Activity of water  =   0.998
                 Ionic strength (mol/kgw)  =   3.530e-02
                       Mass of water (kg)  =   1.333e+00
                 Total alkalinity (eq/kg)  =   2.483e-02
                         Temperature (°C)  =  25.00
                  Electrical balance (eq)  =  -2.991e-16
 Percent error, 100*(Cat-|An|)/(Cat+|An|)  =  -0.00
                               Iterations  =   3
                                  Total H  = 1.481082e+02
                                  Total O  = 7.399060e+01

----------------------------Distribution of species----------------------------

                                               Log       Log       Log    mole V
   Species          Molality    Activity  Molality  Activity     Gamma    cm³/mol

   OH-             1.203e-04   1.003e-04    -3.920    -3.999    -0.079     (0)  
   H+              1.152e-10   1.000e-10    -9.938   -10.000    -0.062      0.00
   H2O             5.551e+01   9.984e-01     1.744    -0.001     0.000     18.07
Cl            3.518e-02
   Cl-             3.518e-02   2.924e-02    -1.454    -1.534    -0.080     (0)  
   FeCl+2          6.169e-35   3.143e-35   -34.210   -34.503    -0.293     (0)  
   FeCl2+          4.859e-36   4.105e-36   -35.313   -35.387    -0.073     (0)  
   FeCl3           1.190e-38   1.200e-38   -37.924   -37.921     0.004     (0)  
Fe(2)         4.501e-12
   FeOH+           2.792e-12   2.359e-12   -11.554   -11.627    -0.073     (0)  
   Fe+2            1.423e-12   7.470e-13   -11.847   -12.127    -0.280     (0)  
   Fe(OH)2         1.988e-13   2.004e-13   -12.702   -12.698     0.004     (0)  
   Fe(OH)3-        8.799e-14   7.434e-14   -13.056   -13.129    -0.073     (0)  
   Fe(HS)2         4.090e-29   4.123e-29   -28.388   -28.385     0.004     (0)  
   Fe(HS)3-        1.329e-39   1.117e-39   -38.877   -38.952    -0.075     (0)  
   FeSO4           0.000e+00   0.000e+00   -40.467   -40.464     0.004     (0)  
Fe(3)         1.057e-16
   Fe(OH)4-        1.048e-16   8.882e-17   -15.980   -16.051    -0.072     (0)  
   Fe(OH)3         8.825e-19   8.897e-19   -18.054   -18.051     0.004     (0)  
   Fe(OH)2+        8.950e-21   7.585e-21   -20.048   -20.120    -0.072     (0)  
   FeOH+2          4.503e-27   2.294e-27   -26.346   -26.639    -0.293     (0)  
   Fe+3            1.276e-34   3.559e-35   -33.894   -34.449    -0.554     (0)  
   FeCl+2          6.169e-35   3.143e-35   -34.210   -34.503    -0.293     (0)  
   FeCl2+          4.859e-36   4.105e-36   -35.313   -35.387    -0.073     (0)  
   FeCl3           1.190e-38   1.200e-38   -37.924   -37.921     0.004     (0)  
   Fe2(OH)2+4      0.000e+00   0.000e+00   -50.644   -51.849    -1.204     (0)  
   FeSO4+          0.000e+00   0.000e+00   -61.042   -61.116    -0.073     (0)  
   Fe3(OH)4+5      0.000e+00   0.000e+00   -67.767   -69.649    -1.882     (0)  
   Fe(SO4)2-       0.000e+00   0.000e+00   -90.127   -90.202    -0.075     (0)  
H(0)          5.339e-05
   H2              2.670e-05   2.692e-05    -4.574    -4.570     0.004     (0)  
N(-3)         3.001e-02
   NH3             2.471e-02   2.492e-02    -1.607    -1.604     0.004     (0)  
   NH4+            5.293e-03   4.372e-03    -2.276    -2.359    -0.083     (0)  
   NH4SO4-         1.726e-32   1.458e-32   -31.763   -31.836    -0.073     (0)  
N(3)          0.000e+00
   NO2-            0.000e+00   0.000e+00   -68.532   -68.608    -0.075     (0)  
N(5)          0.000e+00
   NO3-            0.000e+00   0.000e+00   -95.678   -95.758    -0.081     (0)  
Na            3.001e-02
   Na+             3.001e-02   2.529e-02    -1.523    -1.597    -0.074     (0)  
   NaSO4-          3.873e-32   3.282e-32   -31.412   -31.484    -0.072     (0)  
O(0)          0.000e+00
   O2              0.000e+00   0.000e+00   -83.245   -83.241     0.004     (0)  
S(-2)         1.350e-11
   S5-2            1.265e-12   6.323e-13   -11.898   -12.199    -0.301     (0)  
   S4-2            7.379e-13   3.689e-13   -12.132   -12.433    -0.301     (0)  
   S6-2            6.546e-13   3.273e-13   -12.184   -12.485    -0.301     (0)  
   HS-             2.984e-13   2.488e-13   -12.525   -12.604    -0.079     (0)  
   S-2             5.900e-16   3.006e-16   -15.229   -15.522    -0.293     (0)  
   S3-2            2.600e-16   1.300e-16   -15.585   -15.886    -0.301     (0)  
   H2S             2.158e-16   2.176e-16   -15.666   -15.662     0.004     (0)  
   S2-2            1.476e-17   7.378e-18   -16.831   -17.132    -0.301     (0)  
   Fe(HS)2         4.090e-29   4.123e-29   -28.388   -28.385     0.004     (0)  
   Fe(HS)3-        1.329e-39   1.117e-39   -38.877   -38.952    -0.075     (0)  
S(6)          5.831e-31
   SO4-2           5.272e-31   2.589e-31   -30.278   -30.587    -0.309     (0)  
   NaSO4-          3.873e-32   3.282e-32   -31.412   -31.484    -0.072     (0)  
   NH4SO4-         1.726e-32   1.458e-32   -31.763   -31.836    -0.073     (0)  
   HSO4-           2.986e-39   2.512e-39   -38.525   -38.600    -0.075     (0)  
   FeSO4           0.000e+00   0.000e+00   -40.467   -40.464     0.004     (0)  
   FeSO4+          0.000e+00   0.000e+00   -61.042   -61.116    -0.073     (0)  
   Fe(SO4)2-       0.000e+00   0.000e+00   -90.127   -90.202    -0.075     (0)  

------------------------------Saturation indices-------------------------------

  Phase               SI** log IAP   log K(298 K,   1 atm)

  Fe(OH)2.7Cl0.3   -4.87     -7.91   -3.04  Fe(OH)2.7Cl0.3
  Fe2(SO4)3      -164.24   -160.66    3.58  Fe2(SO4)3
  Fe3(OH)8        -21.25     -1.03   20.22  Fe3(OH)8
  Ferrihydrite     -9.34     -4.45    4.89  Fe(OH)3
  FeS(ppt)        -10.82    -14.73   -3.92  FeS
  Goethite         -4.95     -4.45    0.50  FeOOH
  Greigite        -50.38    -65.38  -14.99  Fe3S4
  Halite           -4.71     -3.13    1.58  NaCl
  Hematite         -4.89     -8.90   -4.01  Fe2O3
  Jarosite-H     -102.42   -114.52  -12.10  (H3O)Fe3(SO4)2(OH)6
  Jarosite-Na     -94.92   -106.12  -11.20  NaFe3(SO4)2(OH)6
  Lepidocrocite    -5.82     -4.45    1.37  FeOOH
  Mackinawite     -12.59    -14.73   -2.14  FeS
  Maghemite       -15.29     -8.90    6.39  Fe2O3
  Magnetite        -4.76     -1.03    3.74  Fe3O4
  Melanterite     -40.25    -42.72   -2.47  FeSO4:7H2O
  Mirabilite      -32.67    -33.79   -1.11  Na2SO4:10H2O
  NaCl             16.87     -3.13  -20.00  NaCl
  NaNO3           -77.36    -97.36  -20.00  NaNO3
  O2(g)           -80.28      2.84   83.12  O2
  pe_fix            9.29      9.29    0.00  e-
  pH_fix          -10.00    -10.00    0.00  H+
  Pyrite          -19.14    -35.91  -16.78  FeS2
  Pyrrhotite      -11.55     11.33   22.89  FeS
  Sulfur          -19.08    -34.10  -15.03  S
  Thenardite      -33.60    -33.78   -0.18  Na2SO4

**For a gas, SI = log10(fugacity). Fugacity = pressure * phi / 1 atm.
  For ideal gases, phi = 1.

Reaction step 7.

Using solution 1.	PURE WATER
Using pure phase assemblage 1.	
Using reaction 1.	

Reaction 1.	

	  1.000e-12 moles of the following reaction have been added:

	                 Relative
	Reactant            moles

	Fe1S3                1.00000

	                 Relative
	Element             moles
	Fe                   1.00000
	S                    3.00000

-------------------------------Phase assemblage--------------------------------

                                                      Moles in assemblage
Phase               SI  log IAP  log K(T, P)   Initial       Final       Delta

Greigite          6.47     0.00     -6.47    0.000e+00           0   0.000e+00
Mackinawite     -12.46   -14.60     -2.14    0.000e+00           0   0.000e+00
NaNO3           -77.36   -97.36    -20.00    0.000e+00           0   0.000e+00
Pyrite           10.37     0.00    -10.37    0.000e+00           0   0.000e+00
Pyrrhotite        7.59    32.58     25.00    0.000e+00           0   0.000e+00
pH_fix          -10.00   -10.00      0.00
	 HCl                is reactant       9.953e+00   9.953e+00  -8.882e-15
pe_fix            9.29     9.29      0.00
	 O2                 is reactant       8.178e-01   8.178e-01  -1.803e-13

-----------------------------Solution composition------------------------------

	Elements           Molality       Moles

	Cl                3.518e-02   4.690e-02
	Fe                5.251e-12   7.000e-12
	N                 3.001e-02   4.000e-02
	Na                3.001e-02   4.000e-02
	S                 1.575e-11   2.100e-11

----------------------------Description of solution----------------------------

                                       pH  =  10.000      Charge balance
                                       pe  =  -9.290      Adjusted to redox equilibrium
                        Activity of water  =   0.998
                 Ionic strength (mol/kgw)  =   3.530e-02
                       Mass of water (kg)  =   1.333e+00
                 Total alkalinity (eq/kg)  =   2.483e-02
                         Temperature (°C)  =  25.00
                  Electrical balance (eq)  =  -2.893e-16
 Percent error, 100*(Cat-|An|)/(Cat+|An|)  =  -0.00
                               Iterations  =   3
                                  Total H  = 1.481082e+02
                                  Total O  = 7.399060e+01

----------------------------Distribution of species----------------------------

                                               Log       Log       Log    mole V
   Species          Molality    Activity  Molality  Activity     Gamma    cm³/mol

   OH-             1.203e-04   1.003e-04    -3.920    -3.999    -0.079     (0)  
   H+              1.152e-10   1.000e-10    -9.938   -10.000    -0.062      0.00
   H2O             5.551e+01   9.984e-01     1.744    -0.001     0.000     18.07
Cl            3.518e-02
   Cl-             3.518e-02   2.924e-02    -1.454    -1.534    -0.080     (0)  
   FeCl+2          7.197e-35   3.667e-35   -34.143   -34.436    -0.293     (0)  
   FeCl2+          5.668e-36   4.789e-36   -35.247   -35.320    -0.073     (0)  
   FeCl3           1.389e-38   1.400e-38   -37.857   -37.854     0.004     (0)  
Fe(2)         5.251e-12
   FeOH+           3.257e-12   2.752e-12   -11.487   -11.560    -0.073     (0)  
   Fe+2            1.660e-12   8.715e-13   -11.780   -12.060    -0.280     (0)  
   Fe(OH)2         2.319e-13   2.338e-13   -12.635   -12.631     0.004     (0)  
   Fe(OH)3-        1.027e-13   8.673e-14   -12.989   -13.062    -0.073     (0)  
   Fe(HS)2         6.494e-29   6.547e-29   -28.187   -28.184     0.004     (0)  
   Fe(HS)3-        2.461e-39   2.070e-39   -38.609   -38.684    -0.075     (0)  
   FeSO4           0.000e+00   0.000e+00   -40.333   -40.330     0.004     (0)  
Fe(3)         1.233e-16
   Fe(OH)4-        1.223e-16   1.036e-16   -15.913   -15.985    -0.072     (0)  
   Fe(OH)3         1.030e-18   1.038e-18   -17.987   -17.984     0.004     (0)  
   Fe(OH)2+        1.044e-20   8.849e-21   -19.981   -20.053    -0.072     (0)  
   FeOH+2          5.254e-27   2.677e-27   -26.280   -26.572    -0.293     (0)  
   Fe+3            1.488e-34   4.152e-35   -33.827   -34.382    -0.554     (0)  
   FeCl+2          7.197e-35   3.667e-35   -34.143   -34.436    -0.293     (0)  
   FeCl2+          5.668e-36   4.789e-36   -35.247   -35.320    -0.073     (0)  
   FeCl3           1.389e-38   1.400e-38   -37.857   -37.854     0.004     (0)  
   Fe2(OH)2+4      0.000e+00   0.000e+00   -50.511   -51.715    -1.204     (0)  
   FeSO4+          0.000e+00   0.000e+00   -60.908   -60.982    -0.073     (0)  
   Fe3(OH)4+5      0.000e+00   0.000e+00   -67.566   -69.448    -1.882     (0)  
   Fe(SO4)2-       0.000e+00   0.000e+00   -89.926   -90.002    -0.075     (0)  
H(0)          5.339e-05
   H2              2.670e-05   2.692e-05    -4.574    -4.570     0.004     (0)  
N(-3)         3.001e-02
   NH3             2.471e-02   2.492e-02    -1.607    -1.604     0.004     (0)  
   NH4+            5.293e-03   4.372e-03    -2.276    -2.359    -0.083     (0)  
   NH4SO4-         2.014e-32   1.701e-32   -31.696   -31.769    -0.073     (0)  
N(3)          0.000e+00
   NO2-            0.000e+00   0.000e+00   -68.532   -68.608    -0.075     (0)  
N(5)          0.000e+00
   NO3-            0.000e+00   0.000e+00   -95.678   -95.758    -0.081     (0)  
Na            3.001e-02
   Na+             3.001e-02   2.529e-02    -1.523    -1.597    -0.074     (0)  
   NaSO4-          4.518e-32   3.829e-32   -31.345   -31.417    -0.072     (0)  
O(0)          0.000e+00
   O2              0.000e+00   0.000e+00   -83.245   -83.241     0.004     (0)  
S(-2)         1.575e-11
   S5-2            1.476e-12   7.377e-13   -11.831   -12.132    -0.301     (0)  
   S4-2            8.609e-13   4.304e-13   -12.065   -12.366    -0.301     (0)  
   S6-2            7.638e-13   3.818e-13   -12.117   -12.418    -0.301     (0)  
   HS-             3.481e-13   2.903e-13   -12.458   -12.537    -0.079     (0)  
   S-2             6.883e-16   3.507e-16   -15.162   -15.455    -0.293     (0)  
   S3-2            3.034e-16   1.517e-16   -15.518   -15.819    -0.301     (0)  
   H2S             2.518e-16   2.538e-16   -15.599   -15.595     0.004     (0)  
   S2-2            1.722e-17   8.608e-18   -16.764   -17.065    -0.301     (0)  
   Fe(HS)2         6.494e-29   6.547e-29   -28.187   -28.184     0.004     (0)  
   Fe(HS)3-        2.461e-39   2.070e-39   -38.609   -38.684    -0.075     (0)  
S(6)          6.803e-31
   SO4-2           6.150e-31   3.020e-31   -30.211   -30.520    -0.309     (0)  
   NaSO4-          4.518e-32   3.829e-32   -31.345   -31.417    -0.072     (0)  
   NH4SO4-         2.014e-32   1.701e-32   -31.696   -31.769    -0.073     (0)  
   HSO4-           3.483e-39   2.931e-39   -38.458   -38.533    -0.075     (0)  
   FeSO4           0.000e+00   0.000e+00   -40.333   -40.330     0.004     (0)  
   FeSO4+          0.000e+00   0.000e+00   -60.908   -60.982    -0.073     (0)  
   Fe(SO4)2-       0.000e+00   0.000e+00   -89.926   -90.002    -0.075     (0)  

------------------------------Saturation indices-------------------------------

  Phase               SI** log IAP   log K(298 K,   1 atm)

  Fe(OH)2.7Cl0.3   -4.80     -7.84   -3.04  Fe(OH)2.7Cl0.3
  Fe2(SO4)3      -163.90   -160.32    3.58  Fe2(SO4)3
  Fe3(OH)8        -21.05     -0.83   20.22  Fe3(OH)8
  Ferrihydrite     -9.27     -4.38    4.89  Fe(OH)3
  FeS(ppt)        -10.68    -14.60   -3.92  FeS
  Goethite         -4.88     -4.38    0.50  FeOOH
  Greigite        -49.91    -64.91  -14.99  Fe3S4
  Halite           -4.71     -3.13    1.58  NaCl
  Hematite         -4.76     -8.77   -4.01  Fe2O3
  Jarosite-H     -102.09   -114.19  -12.10  (H3O)Fe3(SO4)2(OH)6
  Jarosite-Na     -94.59   -105.79  -11.20  NaFe3(SO4)2(OH)6
  Lepidocrocite    -5.75     -4.38    1.37  FeOOH
  Mackinawite     -12.46    -14.60   -2.14  FeS
  Maghemite       -15.15     -8.77    6.39  Fe2O3
  Magnetite        -4.56     -0.83    3.74  Fe3O4
  Melanterite     -40.11    -42.58   -2.47  FeSO4:7H2O
  Mirabilite      -32.61    -33.72   -1.11  Na2SO4:10H2O
  NaCl             16.87     -3.13  -20.00  NaCl
  NaNO3           -77.36    -97.36  -20.00  NaNO3
  O2(g)           -80.28      2.84   83.12  O2
  pe_fix            9.29      9.29    0.00  e-
  pH_fix          -10.00    -10.00    0.00  H+
  Pyrite          -18.94    -35.71  -16.78  FeS2
  Pyrrhotite      -11.42     11.47   22.89  FeS
  Sulfur          -19.01    -34.04  -15.03  S
  Thenardite      -33.53    -33.71   -0.18  Na2SO4

**For a gas, SI = log10(fugacity). Fugacity = pressure * phi / 1 atm.
  For ideal gases, phi = 1.

Reaction step 8.

Using solution 1.	PURE WATER
Using pure phase assemblage 1.	
Using reaction 1.	

Reaction 1.	

	  1.000e-12 moles of the following reaction have been added:

	                 Relative
	Reactant            moles

	Fe1S3                1.00000

	                 Relative
	Element             moles
	Fe                   1.00000
	S                    3.00000

-------------------------------Phase assemblage--------------------------------

                                                      Moles in assemblage
Phase               SI  log IAP  log K(T, P)   Initial       Final       Delta

Greigite          6.47     0.00     -6.47    0.000e+00           0   0.000e+00
Mackinawite     -12.34   -14.48     -2.14    0.000e+00           0   0.000e+00
NaNO3           -77.36   -97.36    -20.00    0.000e+00           0   0.000e+00
Pyrite           10.37     0.00    -10.37    0.000e+00           0   0.000e+00
Pyrrhotite        7.65    32.64     25.00    0.000e+00           0   0.000e+00
pH_fix          -10.00   -10.00      0.00
	 HCl                is reactant       9.953e+00   9.953e+00  -8.882e-15
pe_fix            9.29     9.29      0.00
	 O2                 is reactant       8.178e-01   8.178e-01  -1.720e-13

-----------------------------Solution composition------------------------------

	Elements           Molality       Moles

	Cl                3.518e-02   4.690e-02
	Fe                6.001e-12   8.000e-12
	N                 3.001e-02   4.000e-02
	Na                3.001e-02   4.000e-02
	S                 1.800e-11   2.400e-11

----------------------------Description of solution----------------------------

                                       pH  =  10.000      Charge balance
                                       pe  =  -9.290      Adjusted to redox equilibrium
                        Activity of water  =   0.998
                 Ionic strength (mol/kgw)  =   3.530e-02
                       Mass of water (kg)  =   1.333e+00
                 Total alkalinity (eq/kg)  =   2.483e-02
                         Temperature (°C)  =  25.00
                  Electrical balance (eq)  =  -3.208e-16
 Percent error, 100*(Cat-|An|)/(Cat+|An|)  =  -0.00
                               Iterations  =   3
                                  Total H  = 1.481082e+02
                                  Total O  = 7.399060e+01

----------------------------Distribution of species----------------------------

                                               Log       Log       Log    mole V
   Species          Molality    Activity  Molality  Activity     Gamma    cm³/mol

   OH-             1.203e-04   1.003e-04    -3.920    -3.999    -0.079     (0)  
   H+              1.152e-10   1.000e-10    -9.938   -10.000    -0.062      0.00
   H2O             5.551e+01   9.984e-01     1.744    -0.001     0.000     18.07
Cl            3.518e-02
   Cl-             3.518e-02   2.924e-02    -1.454    -1.534    -0.080     (0)  
   FeCl+2          8.226e-35   4.190e-35   -34.085   -34.378    -0.293     (0)  
   FeCl2+          6.478e-36   5.473e-36   -35.189   -35.262    -0.073     (0)  
   FeCl3           1.587e-38   1.600e-38   -37.799   -37.796     0.004     (0)  
Fe(2)         6.001e-12
   FeOH+           3.722e-12   3.145e-12   -11.429   -11.502    -0.073     (0)  
   Fe+2            1.897e-12   9.960e-13   -11.722   -12.002    -0.280     (0)  
   Fe(OH)2         2.651e-13   2.672e-13   -12.577   -12.573     0.004     (0)  
   Fe(OH)3-        1.173e-13   9.912e-14   -12.931   -13.004    -0.073     (0)  
   Fe(HS)2         9.694e-29   9.773e-29   -28.014   -28.010     0.004     (0)  
   Fe(HS)3-        4.199e-39   3.531e-39   -38.377   -38.452    -0.075     (0)  
   FeSO4           0.000e+00   0.000e+00   -40.217   -40.214     0.004     (0)  
Fe(3)         1.409e-16
   Fe(OH)4-        1.397e-16   1.184e-16   -15.855   -15.927    -0.072     (0)  
   Fe(OH)3         1.177e-18   1.186e-18   -17.929   -17.926     0.004     (0)  
   Fe(OH)2+        1.193e-20   1.011e-20   -19.923   -19.995    -0.072     (0)  
   FeOH+2          6.005e-27   3.059e-27   -26.222   -26.514    -0.293     (0)  
   Fe+3            1.701e-34   4.745e-35   -33.769   -34.324    -0.554     (0)  
   FeCl+2          8.226e-35   4.190e-35   -34.085   -34.378    -0.293     (0)  
   FeCl2+          6.478e-36   5.473e-36   -35.189   -35.262    -0.073     (0)  
   FeCl3           1.587e-38   1.600e-38   -37.799   -37.796     0.004     (0)  
   Fe2(OH)2+4      0.000e+00   0.000e+00   -50.395   -51.599    -1.204     (0)  
   FeSO4+          0.000e+00   0.000e+00   -60.792   -60.866    -0.073     (0)  
   Fe3(OH)4+5      0.000e+00   0.000e+00   -67.392   -69.274    -1.882     (0)  
   Fe(SO4)2-       0.000e+00   0.000e+00   -89.752   -89.828    -0.075     (0)  
H(0)          5.339e-05
   H2              2.670e-05   2.692e-05    -4.574    -4.570     0.004     (0)  
N(-3)         3.001e-02
   NH3             2.471e-02   2.492e-02    -1.607    -1.604     0.004     (0)  
   NH4+            5.293e-03   4.372e-03    -2.276    -2.359    -0.083     (0)  
   NH4SO4-         2.301e-32   1.944e-32   -31.638   -31.711    -0.073     (0)  
N(3)          0.000e+00
   NO2-            0.000e+00   0.000e+00   -68.532   -68.608    -0.075     (0)  
N(5)          0.000e+00
   NO3-            0.000e+00   0.000e+00   -95.678   -95.758    -0.081     (0)  
Na            3.001e-02
   Na+             3.001e-02   2.529e-02    -1.523    -1.597    -0.074     (0)  
   NaSO4-          5.164e-32   4.376e-32   -31.287   -31.359    -0.072     (0)  
O(0)          0.000e+00
   O2              0.000e+00   0.000e+00   -83.245   -83.241     0.004     (0)  
S(-2)         1.800e-11
   S5-2            1.686e-12   8.431e-13   -11.773   -12.074    -0.301     (0)  
   S4-2            9.839e-13   4.919e-13   -12.007   -12.308    -0.301     (0)  
   S6-2            8.729e-13   4.364e-13   -12.059   -12.360    -0.301     (0)  
   HS-             3.978e-13   3.318e-13   -12.400   -12.479    -0.079     (0)  
   S-2             7.867e-16   4.007e-16   -15.104   -15.397    -0.293     (0)  
   S3-2            3.467e-16   1.733e-16   -15.460   -15.761    -0.301     (0)  
   H2S             2.878e-16   2.901e-16   -15.541   -15.537     0.004     (0)  
   S2-2            1.968e-17   9.837e-18   -16.706   -17.007    -0.301     (0)  
   Fe(HS)2         9.694e-29   9.773e-29   -28.014   -28.010     0.004     (0)  
   Fe(HS)3-        4.199e-39   3.531e-39   -38.377   -38.452    -0.075     (0)  
S(6)          7.775e-31
   SO4-2           7.029e-31   3.452e-31   -30.153   -30.462    -0.309     (0)  
   NaSO4-          5.164e-32   4.376e-32   -31.287   -31.359    -0.072     (0)  
   NH4SO4-         2.301e-32   1.944e-32   -31.638   -31.711    -0.073     (0)  
   HSO4-           3.981e-39   3.350e-39   -38.400   -38.475    -0.075     (0)  
   FeSO4           0.000e+00   0.000e+00   -40.217   -40.214     0.004     (0)  
   FeSO4+          0.000e+00   0.000e+00   -60.792   -60.866    -0.073     (0)  
   Fe(SO4)2-       0.000e+00   0.000e+00   -89.752   -89.828    -0.075     (0)  

------------------------------Saturation indices-------------------------------

  Phase               SI** log IAP   log K(298 K,   1 atm)

  Fe(OH)2.7Cl0.3   -4.75     -7.79   -3.04  Fe(OH)2.7Cl0.3
  Fe2(SO4)3      -163.61   -160.03    3.58  Fe2(SO4)3
  Fe3(OH)8        -20.88     -0.65   20.22  Fe3(OH)8
  Ferrihydrite     -9.22     -4.33    4.89  Fe(OH)3
  FeS(ppt)        -10.57    -14.48   -3.92  FeS
  Goethite         -4.83     -4.33    0.50  FeOOH
  Greigite        -49.51    -64.50  -14.99  Fe3S4
  Halite           -4.71     -3.13    1.58  NaCl
  Hematite         -4.64     -8.65   -4.01  Fe2O3
  Jarosite-H     -101.80   -113.90  -12.10  (H3O)Fe3(SO4)2(OH)6
  Jarosite-Na     -94.30   -105.50  -11.20  NaFe3(SO4)2(OH)6
  Lepidocrocite    -5.70     -4.33    1.37  FeOOH
  Mackinawite     -12.34    -14.48   -2.14  FeS
  Maghemite       -15.04     -8.65    6.39  Fe2O3
  Magnetite        -4.39     -0.65    3.74  Fe3O4
  Melanterite     -40.00    -42.47   -2.47  FeSO4:7H2O
  Mirabilite      -32.55    -33.66   -1.11  Na2SO4:10H2O
  NaCl             16.87     -3.13  -20.00  NaCl
  NaNO3           -77.36    -97.36  -20.00  NaNO3
  O2(g)           -80.28      2.84   83.12  O2
  pe_fix            9.29      9.29    0.00  e-
  pH_fix          -10.00    -10.00    0.00  H+
  Pyrite          -18.76    -35.54  -16.78  FeS2
  Pyrrhotite      -11.30     11.58   22.89  FeS
  Sulfur          -18.95    -33.98  -15.03  S
  Thenardite      -33.48    -33.66   -0.18  Na2SO4

**For a gas, SI = log10(fugacity). Fugacity = pressure * phi / 1 atm.
  For ideal gases, phi = 1.

Reaction step 9.

Using solution 1.	PURE WATER
Using pure phase assemblage 1.	
Using reaction 1.	

Reaction 1.	

	  1.000e-12 moles of the following reaction have been added:

	                 Relative
	Reactant            moles

	Fe1S3                1.00000

	                 Relative
	Element             moles
	Fe                   1.00000
	S                    3.00000

-------------------------------Phase assemblage--------------------------------

                                                      Moles in assemblage
Phase               SI  log IAP  log K(T, P)   Initial       Final       Delta

Greigite          6.47     0.00     -6.47    0.000e+00           0   0.000e+00
Mackinawite     -12.24   -14.38     -2.14    0.000e+00           0   0.000e+00
NaNO3           -77.36   -97.36    -20.00    0.000e+00           0   0.000e+00
Pyrite           10.37     0.00    -10.37    0.000e+00           0   0.000e+00
Pyrrhotite        7.70    32.69     25.00    0.000e+00           0   0.000e+00
pH_fix          -10.00   -10.00      0.00
	 HCl                is reactant       9.953e+00   9.953e+00  -8.882e-15
pe_fix            9.29     9.29      0.00
	 O2                 is reactant       8.178e-01   8.178e-01  -1.706e-13

-----------------------------Solution composition------------------------------

	Elements           Molality       Moles

	Cl                3.518e-02   4.690e-02
	Fe                6.752e-12   9.000e-12
	N                 3.001e-02   4.000e-02
	Na                3.001e-02   4.000e-02
	S                 2.025e-11   2.700e-11

----------------------------Description of solution----------------------------

                                       pH  =  10.000      Charge balance
                                       pe  =  -9.290      Adjusted to redox equilibrium
                        Activity of water  =   0.998
                 Ionic strength (mol/kgw)  =   3.530e-02
                       Mass of water (kg)  =   1.333e+00
                 Total alkalinity (eq/kg)  =   2.483e-02
                         Temperature (°C)  =  25.00
                  Electrical balance (eq)  =  -2.698e-16
 Percent error, 100*(Cat-|An|)/(Cat+|An|)  =  -0.00
                               Iterations  =   3
                                  Total H  = 1.481082e+02
                                  Total O  = 7.399060e+01

----------------------------Distribution of species----------------------------

                                               Log       Log       Log    mole V
   Species          Molality    Activity  Molality  Activity     Gamma    cm³/mol

   OH-             1.203e-04   1.003e-04    -3.920    -3.999    -0.079     (0)  
   H+              1.152e-10   1.000e-10    -9.938   -10.000    -0.062      0.00
[...]
   NH4SO4-         8.175e-23   6.756e-23   -22.088   -22.170    -0.083     (0)  
   HSO4-           1.419e-29   1.167e-29   -28.848   -28.933    -0.085     (0)  
   FeSO4           1.009e-30   1.020e-30   -29.996   -29.991     0.005     (0)  
   FeSO4+          0.000e+00   0.000e+00   -50.560   -50.643    -0.083     (0)  
   Fe(SO4)2-       0.000e+00   0.000e+00   -69.978   -70.063    -0.085     (0)  

------------------------------Saturation indices-------------------------------

  Phase               SI** log IAP   log K(298 K,   1 atm)

  Fe(OH)2.7Cl0.3   -4.28     -7.32   -3.04  Fe(OH)2.7Cl0.3
  Fe2(SO4)3      -133.63   -130.05    3.58  Fe2(SO4)3
  Fe3(OH)8        -18.83      1.39   20.22  Fe3(OH)8
  Ferrihydrite     -8.54     -3.65    4.89  Fe(OH)3
  FeS(ppt)         -0.34     -4.26   -3.92  FeS
  Goethite         -4.14     -3.64    0.50  FeOOH
  Greigite         -9.30    -24.29  -14.99  Fe3S4
  Halite           -5.44     -3.86    1.58  NaCl
  Hematite         -3.28     -7.29   -4.01  Fe2O3
  Jarosite-H      -80.67    -92.77  -12.10  (H3O)Fe3(SO4)2(OH)6
  Jarosite-Na     -73.18    -84.38  -11.20  NaFe3(SO4)2(OH)6
  Lepidocrocite    -5.02     -3.64    1.37  FeOOH
  Mackinawite      -2.12     -4.26   -2.14  FeS
  Maghemite       -13.67     -7.29    6.39  Fe2O3
  Magnetite        -2.35      1.39    3.74  Fe3O4
  Melanterite     -29.78    -32.25   -2.47  FeSO4:7H2O
  Mirabilite      -23.02    -24.14   -1.11  Na2SO4:10H2O
  NaCl             16.14     -3.86  -20.00  NaCl
  NaNO3           -77.37    -97.37  -20.00  NaNO3
  O2(g)           -80.28      2.84   83.12  O2
  pe_fix            9.29      9.29    0.00  e-
  pH_fix          -10.00    -10.00    0.00  H+
  Pyrite            1.00    -15.78  -16.78  FeS2
  Pyrrhotite       -1.08     21.81   22.89  FeS
  Sulfur           -9.41    -24.44  -15.03  S
  Thenardite      -23.95    -24.13   -0.18  Na2SO4

**For a gas, SI = log10(fugacity). Fugacity = pressure * phi / 1 atm.
  For ideal gases, phi = 1.

Reaction step 109.

Using solution 1.	PURE WATER
Using pure phase assemblage 1.	
Using reaction 1.	

Reaction 1.	

	  1.000e-02 moles of the following reaction have been added:

	                 Relative
	Reactant            moles

	Fe1S3                1.00000

	                 Relative
	Element             moles
	Fe                   1.00000
	S                    3.00000

-------------------------------Phase assemblage--------------------------------

                                                      Moles in assemblage
Phase               SI  log IAP  log K(T, P)   Initial       Final       Delta

Greigite          6.47     0.00     -6.47    0.000e+00           0   0.000e+00
Mackinawite      -2.16    -4.30     -2.14    0.000e+00           0   0.000e+00
NaNO3           -77.37   -97.37    -20.00    0.000e+00           0   0.000e+00
Pyrite           10.37     0.00    -10.37    9.111e-02   1.011e-01   1.000e-02
Pyrrhotite        8.24    33.24     25.00    0.000e+00           0   0.000e+00
pH_fix          -10.00   -10.00      0.00
	 HCl                is reactant       9.991e+00   9.995e+00   4.125e-03
pe_fix            9.29     9.29      0.00
	 O2                 is reactant       8.277e-01   8.288e-01   1.085e-03

-----------------------------Solution composition------------------------------

	Elements           Molality       Moles

	Cl                3.858e-03   5.141e-03
	Fe                6.587e-09   8.777e-09
	N                 3.002e-02   4.000e-02
	Na                3.002e-02   4.000e-02
	S                 7.587e-02   1.011e-01

----------------------------Description of solution----------------------------

                                       pH  =  10.000      Charge balance
                                       pe  =  -9.290      Adjusted to redox equilibrium
                        Activity of water  =   0.999
                 Ionic strength (mol/kgw)  =   5.042e-02
                       Mass of water (kg)  =   1.333e+00
                 Total alkalinity (eq/kg)  =   5.617e-02
                         Temperature (°C)  =  25.00
                  Electrical balance (eq)  =  -1.052e-11
 Percent error, 100*(Cat-|An|)/(Cat+|An|)  =  -0.00
                               Iterations  =   5
                                  Total H  = 1.480664e+02
                                  Total O  = 7.396857e+01

----------------------------Distribution of species----------------------------

                                               Log       Log       Log    mole V
   Species          Molality    Activity  Molality  Activity     Gamma    cm³/mol

   OH-             1.237e-04   1.003e-04    -3.908    -3.999    -0.091     (0)  
   H+              1.172e-10   1.000e-10    -9.931   -10.000    -0.069      0.00
   H2O             5.551e+01   9.986e-01     1.744    -0.001     0.000     18.07
Cl            3.858e-03
   Cl-             3.858e-03   3.114e-03    -2.414    -2.507    -0.093     (0)  
   FeCl+2          3.816e-35   1.766e-35   -34.418   -34.753    -0.335     (0)  
   FeCl2+          2.978e-37   2.456e-37   -36.526   -36.610    -0.084     (0)  
   FeCl3           0.000e+00   0.000e+00   -40.121   -40.116     0.005     (0)  
Fe(2)         6.587e-09
   Fe(HS)2         5.606e-09   5.671e-09    -8.251    -8.246     0.005     (0)  
   Fe(HS)3-        9.562e-10   7.847e-10    -9.019    -9.105    -0.086     (0)  
   FeOH+           1.509e-11   1.244e-11   -10.821   -10.905    -0.084     (0)  
   Fe+2            8.187e-12   3.940e-12   -11.087   -11.404    -0.318     (0)  
   Fe(OH)2         1.045e-12   1.058e-12   -11.981   -11.976     0.005     (0)  
   Fe(OH)3-        4.758e-13   3.924e-13   -12.323   -12.406    -0.084     (0)  
   FeSO4           9.166e-31   9.273e-31   -30.038   -30.033     0.005     (0)  
Fe(3)         5.710e-16
   Fe(OH)4-        5.663e-16   4.690e-16   -15.247   -15.329    -0.082     (0)  
   Fe(OH)3         4.642e-18   4.696e-18   -17.333   -17.328     0.005     (0)  
   Fe(OH)2+        4.833e-20   4.003e-20   -19.316   -19.398    -0.082     (0)  
   FeOH+2          2.616e-26   1.210e-26   -25.582   -25.917    -0.335     (0)  
   Fe+3            7.817e-34   1.877e-34   -33.107   -33.726    -0.619     (0)  
   FeCl+2          3.816e-35   1.766e-35   -34.418   -34.753    -0.335     (0)  
   FeCl2+          2.978e-37   2.456e-37   -36.526   -36.610    -0.084     (0)  
   FeCl3           0.000e+00   0.000e+00   -40.121   -40.116     0.005     (0)  
   Fe2(OH)2+4      0.000e+00   0.000e+00   -49.031   -50.404    -1.373     (0)  
   FeSO4+          0.000e+00   0.000e+00   -50.601   -50.685    -0.084     (0)  
   Fe3(OH)4+5      0.000e+00   0.000e+00   -65.336   -67.482    -2.145     (0)  
   Fe(SO4)2-       0.000e+00   0.000e+00   -69.977   -70.063    -0.086     (0)  
H(0)          5.321e-05
   H2              2.660e-05   2.692e-05    -4.575    -4.570     0.005     (0)  
N(-3)         3.002e-02
   NH3             2.457e-02   2.485e-02    -1.610    -1.605     0.005     (0)  
   NH4+            5.449e-03   4.361e-03    -2.264    -2.360    -0.097     (0)  
   NH4SO4-         9.015e-23   7.435e-23   -22.045   -22.129    -0.084     (0)  
N(3)          0.000e+00
   NO2-            0.000e+00   0.000e+00   -68.523   -68.609    -0.086     (0)  
N(5)          0.000e+00
   NO3-            0.000e+00   0.000e+00   -95.665   -95.759    -0.094     (0)  
Na            3.002e-02
   Na+             3.002e-02   2.470e-02    -1.523    -1.607    -0.085     (0)  
   NaSO4-          1.978e-22   1.638e-22   -21.704   -21.786    -0.082     (0)  
O(0)          0.000e+00
   O2              0.000e+00   0.000e+00   -83.246   -83.241     0.005     (0)  
S(-2)         7.587e-02
   S5-2            7.117e-03   3.229e-03    -2.148    -2.491    -0.343     (0)  
   S4-2            4.152e-03   1.884e-03    -2.382    -2.725    -0.343     (0)  
   S6-2            3.684e-03   1.671e-03    -2.434    -2.777    -0.343     (0)  
   HS-             1.567e-03   1.271e-03    -2.805    -2.896    -0.091     (0)  
   S-2             3.317e-06   1.535e-06    -5.479    -5.814    -0.335     (0)  
   S3-2            1.463e-06   6.638e-07    -5.835    -6.178    -0.343     (0)  
   H2S             1.098e-06   1.111e-06    -5.959    -5.954     0.005     (0)  
   S2-2            8.304e-08   3.768e-08    -7.081    -7.424    -0.343     (0)  
   Fe(HS)2         5.606e-09   5.671e-09    -8.251    -8.246     0.005     (0)  
   Fe(HS)3-        9.562e-10   7.847e-10    -9.019    -9.105    -0.086     (0)  
S(6)          3.290e-21
   SO4-2           3.002e-21   1.323e-21   -20.523   -20.878    -0.356     (0)  
   NaSO4-          1.978e-22   1.638e-22   -21.704   -21.786    -0.082     (0)  
   NH4SO4-         9.015e-23   7.435e-23   -22.045   -22.129    -0.084     (0)  
   HSO4-           1.565e-29   1.284e-29   -28.805   -28.891    -0.086     (0)  
   FeSO4           9.166e-31   9.273e-31   -30.038   -30.033     0.005     (0)  
   FeSO4+          0.000e+00   0.000e+00   -50.601   -50.685    -0.084     (0)  
   Fe(SO4)2-       0.000e+00   0.000e+00   -69.977   -70.063    -0.086     (0)  

------------------------------Saturation indices-------------------------------

  Phase               SI** log IAP   log K(298 K,   1 atm)

  Fe(OH)2.7Cl0.3   -4.44     -7.48   -3.04  Fe(OH)2.7Cl0.3
  Fe2(SO4)3      -133.67   -130.09    3.58  Fe2(SO4)3
  Fe3(OH)8        -19.08      1.14   20.22  Fe3(OH)8
  Ferrihydrite     -8.62     -3.73    4.89  Fe(OH)3
  FeS(ppt)         -0.39     -4.30   -3.92  FeS
  Goethite         -4.23     -3.73    0.50  FeOOH
  Greigite         -9.38    -24.38  -14.99  Fe3S4
  Halite           -5.70     -4.11    1.58  NaCl
  Hematite         -3.45     -7.45   -4.01  Fe2O3
  Jarosite-H      -80.84    -92.94  -12.10  (H3O)Fe3(SO4)2(OH)6
  Jarosite-Na     -73.35    -84.55  -11.20  NaFe3(SO4)2(OH)6
  Lepidocrocite    -5.10     -3.73    1.37  FeOOH
  Mackinawite      -2.16     -4.30   -2.14  FeS
  Maghemite       -13.84     -7.45    6.39  Fe2O3
  Magnetite        -2.60      1.14    3.74  Fe3O4
  Melanterite     -29.82    -32.29   -2.47  FeSO4:7H2O
  Mirabilite      -22.98    -24.10   -1.11  Na2SO4:10H2O
  NaCl             15.89     -4.11  -20.00  NaCl
  NaNO3           -77.37    -97.37  -20.00  NaNO3
  O2(g)           -80.28      2.84   83.12  O2
  pe_fix            9.29      9.29    0.00  e-
  pH_fix          -10.00    -10.00    0.00  H+
  Pyrite            1.00    -15.78  -16.78  FeS2
  Pyrrhotite       -1.12     21.76   22.89  FeS
  Sulfur           -9.37    -24.39  -15.03  S
  Thenardite      -23.91    -24.09   -0.18  Na2SO4

**For a gas, SI = log10(fugacity). Fugacity = pressure * phi / 1 atm.
  For ideal gases, phi = 1.

Reaction step 110.

Using solution 1.	PURE WATER
Using pure phase assemblage 1.	
Using reaction 1.	

Reaction 1.	

	  1.000e-02 moles of the following reaction have been added:

	                 Relative
	Reactant            moles

	Fe1S3                1.00000

	                 Relative
	Element             moles
	Fe                   1.00000
	S                    3.00000

-------------------------------Phase assemblage--------------------------------

                                                      Moles in assemblage
Phase               SI  log IAP  log K(T, P)   Initial       Final       Delta

Greigite          6.47     0.00     -6.47    0.000e+00           0   0.000e+00
Mackinawite      -2.20    -4.34     -2.14    0.000e+00           0   0.000e+00
NaNO3           -77.37   -97.37    -20.00    0.000e+00           0   0.000e+00
Pyrite           10.37     0.00    -10.37    1.011e-01   1.111e-01   1.000e-02
Pyrrhotite        8.17    33.16     25.00    0.000e+00           0   0.000e+00
pH_fix          -10.00   -10.00      0.00
	 HCl                is reactant       9.995e+00   9.999e+00   4.124e-03
pe_fix            9.29     9.29      0.00
	 O2                 is reactant       8.288e-01   8.299e-01   1.084e-03

-----------------------------Solution composition------------------------------

	Elements           Molality       Moles

	Cl                7.636e-04   1.018e-03
	Fe                6.669e-09   8.887e-09
	N                 3.002e-02   4.000e-02
	Na                3.002e-02   4.000e-02
	S                 8.338e-02   1.111e-01

----------------------------Description of solution----------------------------

                                       pH  =  10.000      Charge balance
                                       pe  =  -9.290      Adjusted to redox equilibrium
                        Activity of water  =   0.999
                 Ionic strength (mol/kgw)  =   5.192e-02
                       Mass of water (kg)  =   1.333e+00
                 Total alkalinity (eq/kg)  =   5.927e-02
                         Temperature (°C)  =  25.00
                  Electrical balance (eq)  =  -9.584e-12
 Percent error, 100*(Cat-|An|)/(Cat+|An|)  =  -0.00
                               Iterations  =   8
                                  Total H  = 1.480623e+02
                                  Total O  = 7.396640e+01

----------------------------Distribution of species----------------------------

                                               Log       Log       Log    mole V
   Species          Molality    Activity  Molality  Activity     Gamma    cm³/mol

   OH-             1.240e-04   1.003e-04    -3.906    -3.999    -0.092     (0)  
   H+              1.173e-10   1.000e-10    -9.931   -10.000    -0.069      0.00
   H2O             5.551e+01   9.987e-01     1.744    -0.001     0.000     18.07
Cl            7.636e-04
   Cl-             7.636e-04   6.148e-04    -3.117    -3.211    -0.094     (0)  
   FeCl+2          6.392e-36   2.933e-36   -35.194   -35.533    -0.338     (0)  
   FeCl2+          9.787e-39   8.055e-39   -38.009   -38.094    -0.085     (0)  
   FeCl3           0.000e+00   0.000e+00   -42.310   -42.305     0.005     (0)  
Fe(2)         6.669e-09
   Fe(HS)2         5.604e-09   5.671e-09    -8.252    -8.246     0.005     (0)  
   Fe(HS)3-        1.044e-09   8.554e-10    -8.981    -9.068    -0.087     (0)  
   FeOH+           1.272e-11   1.047e-11   -10.895   -10.980    -0.085     (0)  
   Fe+2            6.941e-12   3.316e-12   -11.159   -11.479    -0.321     (0)  
   Fe(OH)2         8.796e-13   8.902e-13   -12.056   -12.051     0.005     (0)  
   Fe(OH)3-        4.013e-13   3.303e-13   -12.397   -12.481    -0.085     (0)  
   FeSO4           8.407e-31   8.508e-31   -30.075   -30.070     0.005     (0)  
Fe(3)         4.816e-16
   Fe(OH)4-        4.776e-16   3.947e-16   -15.321   -15.404    -0.083     (0)  
   Fe(OH)3         3.906e-18   3.953e-18   -17.408   -17.403     0.005     (0)  
   Fe(OH)2+        4.076e-20   3.369e-20   -19.390   -19.473    -0.083     (0)  
   FeOH+2          2.220e-26   1.019e-26   -25.654   -25.992    -0.338     (0)  
   Fe+3            6.662e-34   1.580e-34   -33.176   -33.801    -0.625     (0)  
   FeCl+2          6.392e-36   2.933e-36   -35.194   -35.533    -0.338     (0)  
   FeCl2+          9.787e-39   8.055e-39   -38.009   -38.094    -0.085     (0)  
   FeCl3           0.000e+00   0.000e+00   -42.310   -42.305     0.005     (0)  
   Fe2(OH)2+4      0.000e+00   0.000e+00   -49.167   -50.554    -1.387     (0)  
   FeSO4+          0.000e+00   0.000e+00   -50.638   -50.722    -0.085     (0)  
   Fe3(OH)4+5      0.000e+00   0.000e+00   -65.539   -67.706    -2.168     (0)  
   Fe(SO4)2-       0.000e+00   0.000e+00   -69.976   -70.063    -0.087     (0)  
H(0)          5.319e-05
   H2              2.660e-05   2.692e-05    -4.575    -4.570     0.005     (0)  
N(-3)         3.002e-02
   NH3             2.455e-02   2.485e-02    -1.610    -1.605     0.005     (0)  
   NH4+            5.463e-03   4.360e-03    -2.263    -2.360    -0.098     (0)  
   NH4SO4-         9.846e-23   8.104e-23   -22.007   -22.091    -0.085     (0)  
N(3)          0.000e+00
   NO2-            0.000e+00   0.000e+00   -68.522   -68.609    -0.087     (0)  
N(5)          0.000e+00
   NO3-            0.000e+00   0.000e+00   -95.664   -95.759    -0.095     (0)  
Na            3.002e-02
   Na+             3.002e-02   2.465e-02    -1.523    -1.608    -0.086     (0)  
   NaSO4-          2.157e-22   1.782e-22   -21.666   -21.749    -0.083     (0)  
O(0)          0.000e+00
   O2              0.000e+00   0.000e+00   -83.246   -83.241     0.005     (0)  
S(-2)         8.338e-02
   S5-2            7.822e-03   3.520e-03    -2.107    -2.453    -0.347     (0)  
   S4-2            4.564e-03   2.054e-03    -2.341    -2.687    -0.347     (0)  
   S6-2            4.049e-03   1.822e-03    -2.393    -2.739    -0.347     (0)  
   HS-             1.712e-03   1.385e-03    -2.766    -2.858    -0.092     (0)  
   S-2             3.646e-06   1.673e-06    -5.438    -5.776    -0.338     (0)  
   S3-2            1.608e-06   7.236e-07    -5.794    -6.140    -0.347     (0)  
   H2S             1.197e-06   1.211e-06    -5.922    -5.917     0.005     (0)  
   S2-2            9.127e-08   4.107e-08    -7.040    -7.386    -0.347     (0)  
   Fe(HS)2         5.604e-09   5.671e-09    -8.252    -8.246     0.005     (0)  
   Fe(HS)3-        1.044e-09   8.554e-10    -8.981    -9.068    -0.087     (0)  
S(6)          3.618e-21
   SO4-2           3.304e-21   1.443e-21   -20.481   -20.841    -0.360     (0)  
   NaSO4-          2.157e-22   1.782e-22   -21.666   -21.749    -0.083     (0)  
   NH4SO4-         9.846e-23   8.104e-23   -22.007   -22.091    -0.085     (0)  
   HSO4-           1.710e-29   1.400e-29   -28.767   -28.854    -0.087     (0)  
   FeSO4           8.407e-31   8.508e-31   -30.075   -30.070     0.005     (0)  
   FeSO4+          0.000e+00   0.000e+00   -50.638   -50.722    -0.085     (0)  
   Fe(SO4)2-       0.000e+00   0.000e+00   -69.976   -70.063    -0.087     (0)  

------------------------------Saturation indices-------------------------------

  Phase               SI** log IAP   log K(298 K,   1 atm)

  Fe(OH)2.7Cl0.3   -4.73     -7.77   -3.04  Fe(OH)2.7Cl0.3
  Fe2(SO4)3      -133.71   -130.13    3.58  Fe2(SO4)3
  Fe3(OH)8        -19.31      0.91   20.22  Fe3(OH)8
  Ferrihydrite     -8.69     -3.80    4.89  Fe(OH)3
  FeS(ppt)         -0.42     -4.34   -3.92  FeS
  Goethite         -4.30     -3.80    0.50  FeOOH
  Greigite         -9.46    -24.45  -14.99  Fe3S4
  Halite           -6.40     -4.82    1.58  NaCl
  Hematite         -3.60     -7.60   -4.01  Fe2O3
  Jarosite-H      -80.99    -93.09  -12.10  (H3O)Fe3(SO4)2(OH)6
  Jarosite-Na     -73.50    -84.70  -11.20  NaFe3(SO4)2(OH)6
  Lepidocrocite    -5.17     -3.80    1.37  FeOOH
  Mackinawite      -2.20     -4.34   -2.14  FeS
  Maghemite       -13.99     -7.60    6.39  Fe2O3
  Magnetite        -2.82      0.92    3.74  Fe3O4
  Melanterite     -29.85    -32.32   -2.47  FeSO4:7H2O
  Mirabilite      -22.95    -24.06   -1.11  Na2SO4:10H2O
  NaCl             15.18     -4.82  -20.00  NaCl
  NaNO3           -77.37    -97.37  -20.00  NaNO3
  O2(g)           -80.28      2.84   83.12  O2
  pe_fix            9.29      9.29    0.00  e-
  pH_fix          -10.00    -10.00    0.00  H+
  Pyrite            1.00    -15.78  -16.78  FeS2
  Pyrrhotite       -1.16     21.73   22.89  FeS
  Sulfur           -9.33    -24.36  -15.03  S
  Thenardite      -23.88    -24.06   -0.18  Na2SO4

**For a gas, SI = log10(fugacity). Fugacity = pressure * phi / 1 atm.
  For ideal gases, phi = 1.

------------------
End of simulation.
------------------

------------------------------------
Reading input data for simulation 3.
------------------------------------

-------------------------------
End of Run after 0.618 Seconds.
-------------------------------

