   Input file: C:\Users\jt2020\OneDrive - Imperial College London\Data\Thermodynamics\Thermodynamics\Phreeq\Reaction Progress\All models with pyrrhotite\Polysulfides\S-2 reactions\Polysulfide reactions fixed.pqi
  Output file: C:\Users\jt2020\OneDrive - Imperial College London\Data\Thermodynamics\Thermodynamics\Phreeq\Reaction Progress\All models with pyrrhotite\Polysulfides\S-2 reactions\Polysulfide reactions fixed.pqo
Database file: C:\Users\jt2020\OneDrive - Imperial College London\Data\Thermodynamics\Thermodynamics\Phreeq\Reaction Progress\All models with pyrrhotite\Database\llnlpyrrminteqpoly.dat

------------------
Reading data base.
------------------

	SOLUTION_MASTER_SPECIES
	SOLUTION_SPECIES
	SOLUTION_SPECIES
	PHASES
	SURFACE_MASTER_SPECIES
	SURFACE_SPECIES
	END
------------------------------------
Reading input data for simulation 1.
------------------------------------

	DATABASE C:\Users\jt2020\OneDrive - Imperial College London\Data\Thermodynamics\Thermodynamics\Phreeq\Reaction Progress\All models with pyrrhotite\Database\llnlpyrrminteqpoly.dat
	TITLE Poly Sn2- buffered
	SOLUTION 1  PURE WATER
	            pH    10.0 charge
	          temp   25
	            pe    -9.29
	PHASES
	pH_fix
	      H + = H +
	      log_k = 0.0
	pe_fix
	      e- = e-
	      log_k 0.0
	Sulfur
	      S + 2e- = S-2
	      log_k           -15.026
	      delta_h 7.9 kcal
	Mackinawite
	    FeS + H+ = Fe+2 + HS-
	    log_k     -2.137
	    delta_h   -3.578 kcal
	Greigite
	    Fe3S4 + S5-2 = 3Mackinawite(s) + S6-2   
	    log_k     -6.721
	    delta_h   38.521 kcal
	Pyrite
	    FeS2 + 0.33333333333333S3-2 = 0.3333333333333Greigite(s) + 0.3333333333333S5-2
	    log_k     -10.075
	    delta_h   7.3 kcal
	Pyrrhotite
	    FeS + H+ = Fe+2 + HS-    
	    log_k     -3.24554
	    delta_h    -2.64564 kcal 
	NaNO3
	    NaNO3 = Na+ + NO3-
	    log_K -20
	NaCl
	    NaCl = Cl- + Na+
	    log_k     -20
	END
-----
TITLE
-----

 Poly Sn2- buffered

-------------------------------------------
Beginning of initial solution calculations.
-------------------------------------------

Initial solution 1.	PURE WATER

-----------------------------Solution composition------------------------------

	Elements           Molality       Moles

	Pure water     

----------------------------Description of solution----------------------------

                                       pH  =   7.081      Charge balance
                                       pe  =  -9.290    
                        Activity of water  =   0.685
                 Ionic strength (mol/kgw)  =   8.299e-08
                       Mass of water (kg)  =   1.000e+00
                 Total alkalinity (eq/kg)  =   3.868e-16
                         Temperature (°C)  =  25.00
                  Electrical balance (eq)  =  -3.868e-16
 Percent error, 100*(Cat-|An|)/(Cat+|An|)  =  -0.00
                               Iterations  =  31
                                  Total H  = 1.480613e+02
                                  Total O  = 5.550622e+01

----------------------------Distribution of species----------------------------

                                               Log       Log       Log    mole V
   Species          Molality    Activity  Molality  Activity     Gamma    cm³/mol

   OH-             8.299e-08   8.296e-08    -7.081    -7.081    -0.000     (0)  
   H+              8.299e-08   8.296e-08    -7.081    -7.081    -0.000      0.00
   H2O             5.551e+01   6.851e-01     1.744    -0.164     0.000     18.07
H(0)          3.705e+01
   H2              1.852e+01   1.852e+01     1.268     1.268     0.000     (0)  
O(0)          0.000e+00
   O2              0.000e+00   0.000e+00   -95.244   -95.244     0.000     (0)  

------------------------------Saturation indices-------------------------------

  Phase               SI** log IAP   log K(298 K,   1 atm)

  O2(g)           -92.28     -9.16   83.12  O2
  pe_fix            9.29      9.29    0.00  e-
  pH_fix           -7.08     -7.08    0.00  H+

**For a gas, SI = log10(fugacity). Fugacity = pressure * phi / 1 atm.
  For ideal gases, phi = 1.

------------------
End of simulation.
------------------

------------------------------------
Reading input data for simulation 2.
------------------------------------

	INCREMENTAL_REACTIONS
	REACTION
	Fe1S3 1
	10*1e-12 10*1e-11 10*1e-10 10*1e-9 10*1e-8 10*1e-7 10*1e-6 10*1e-5 10*1e-4  10*1e-3  10*1e-2 mol
	USE solution 1
	EQUILIBRIUM_PHASES 1
	        Mackinawite     0.0     0.0 
	        Greigite        0.0     0.0
	        Pyrite          0.0     0.0
	        Pyrrhotite      0.0     0.0
	        NaNO3           0.0     0.0002
	        pH_fix          -10      HCl       10   
	        pe_fix          9.29    O2(g)     10       #-550mV
	USER_GRAPH 1 Simulation 
	    -headings               Pyrite Greigite Mackinawite Pyrrhotite
	    -axis_titles            "Fe and S added, Log moles" "Mineral, moles"
	    -chart_title            "Pyrite pathway in a sulphur dominant system with Polysulfides as the oxidant"
	    -axis_scale sy_axis     auto auto auto auto log
	    -initial_solutions      false
	    -connect_simulations    false
	    -axis_scale y_axis      auto auto auto auto Log
	    -axis_scale sy_axis	    auto auto auto auto Log
	    -plot_concentration_vs  x
	  -start
	 5 PUT(GET(1) + RXN, 1)
	  20 PLOT_XY log10(GET(1)), EQUI("Pyrite") color = Green, line_w = 0,   	symbol = Plus, symbol_size = 5, y_axis = 2
	  30 PLOT_XY log10(GET(1)), EQUI("Greigite") color = Blue, line_w = 0,   	symbol = Plus, symbol_size = 5, y_axis = 2
	  40 PLOT_XY log10(GET(1)), EQUI("Mackinawite") color = Cyan, line_w = 0,   	symbol = Plus, symbol_size = 5, y_axis = 2
	  50 PLOT_XY log10(GET(1)), EQUI("Pyrrhotite") color = Red, line_w = 0,   	symbol = Plus, symbol_size = 5, y_axis = 2
	  -end
	    -active                 true
	SELECTED_OUTPUT
	    file                 poly S dom buffered.csv
	    saturation_indices   Mackinawite  Greigite  Pyrite Pyrrhotite
	    reaction             
	    totals               Fe S 
	    equilibrium_phases   Mackinawite  Greigite  Pyrite Pyrrhotite
	END
-----------------------------------------
Beginning of batch-reaction calculations.
-----------------------------------------

Reaction step 1.

WARNING: pH_fix, Pure phase with add formula has not converged.
	 SI may be a local minimum.	Residual: 4.803386e-01

Using solution 1.	PURE WATER
Using pure phase assemblage 1.	
Using reaction 1.	

Reaction 1.	

	  1.000e-12 moles of the following reaction have been added:

	                 Relative
	Reactant            moles

	Fe1S3                1.00000

	                 Relative
	Element             moles
	Fe                   1.00000
	S                    3.00000

-------------------------------Phase assemblage--------------------------------

                                                      Moles in assemblage
Phase               SI  log IAP  log K(T, P)   Initial       Final       Delta

Greigite          6.72     0.00     -6.72    0.000e+00           0   0.000e+00
Mackinawite     -33.60   -35.73     -2.14    0.000e+00           0   0.000e+00
NaNO3           -79.98   -99.98    -20.00    2.000e-04           0  -2.000e-04
Pyrite           10.07     0.00    -10.07    0.000e+00           0   0.000e+00
Pyrrhotite      -32.49   -35.73     -3.25    0.000e+00           0   0.000e+00
pH_fix          -10.21   -10.21      0.00
	 HCl                is reactant       1.000e+01   1.000e+01  -1.768e-15
pe_fix            9.29     9.29      0.00
	 O2                 is reactant       1.000e+01   7.382e-01  -9.262e+00

-----------------------------Solution composition------------------------------

	Elements           Molality       Moles

	Cl                0.000e+00   0.000e+00
	Fe                7.498e-13   1.000e-12
	N                 1.500e-04   2.000e-04
	Na                1.500e-04   2.000e-04
	S                 2.249e-12   3.000e-12

----------------------------Description of solution----------------------------

                                       pH  =  10.209      Charge balance
                                       pe  =  -9.290      Adjusted to redox equilibrium
                        Activity of water  =   1.000
                 Ionic strength (mol/kgw)  =   1.648e-04
                       Mass of water (kg)  =   1.334e+00
                 Total alkalinity (eq/kg)  =   2.999e-04
                         Temperature (°C)  =  25.00
                  Electrical balance (eq)  =  -3.865e-16
 Percent error, 100*(Cat-|An|)/(Cat+|An|)  =  -0.00
                               Iterations  =  35
                                  Total H  = 1.480613e+02
                                  Total O  = 7.403042e+01

----------------------------Distribution of species----------------------------

                                               Log       Log       Log    mole V
   Species          Molality    Activity  Molality  Activity     Gamma    cm³/mol

   OH-             1.648e-04   1.624e-04    -3.783    -3.789    -0.006     (0)  
   H+              6.276e-11   6.186e-11   -10.202   -10.209    -0.006      0.00
   H2O             5.551e+01   1.000e+00     1.744    -0.000     0.000     18.07
Cl            0.000e+00
   Cl-             0.000e+00   0.000e+00   -42.327   -42.334    -0.006     (0)  
   FeCl+2          0.000e+00   0.000e+00   -76.143   -76.169    -0.026     (0)  
   FeCl2+          0.000e+00   0.000e+00  -117.846  -117.852    -0.006     (0)  
   FeCl3           0.000e+00   0.000e+00  -161.186  -161.186     0.000     (0)  
Fe(2)         7.497e-13
   FeOH+           5.270e-13   5.192e-13   -12.278   -12.285    -0.006     (0)  
   Fe+2            1.077e-13   1.016e-13   -12.968   -12.993    -0.026     (0)  
   Fe(OH)2         7.144e-14   7.145e-14   -13.146   -13.146     0.000     (0)  
   Fe(OH)3-        4.355e-14   4.291e-14   -13.361   -13.367    -0.006     (0)  
   FeSO4           0.000e+00   0.000e+00   -59.794   -59.794     0.000     (0)  
   Fe(HS)2         0.000e+00   0.000e+00   -69.939   -69.939     0.000     (0)  
   Fe(HS)3-        0.000e+00   0.000e+00  -100.844  -100.850    -0.006     (0)  
Fe(3)         8.477e-17
   Fe(OH)4-        8.425e-17   8.302e-17   -16.074   -16.081    -0.006     (0)  
   Fe(OH)3         5.135e-19   5.136e-19   -18.289   -18.289     0.000     (0)  
   Fe(OH)2+        2.744e-21   2.704e-21   -20.562   -20.568    -0.006     (0)  
   FeOH+2          5.358e-28   5.051e-28   -27.271   -27.297    -0.026     (0)  
   Fe+3            5.515e-36   4.839e-36   -35.258   -35.315    -0.057     (0)  
   Fe2(OH)2+4      0.000e+00   0.000e+00   -53.060   -53.163    -0.103     (0)  
   Fe3(OH)4+5      0.000e+00   0.000e+00   -71.250   -71.411    -0.161     (0)  
   FeCl+2          0.000e+00   0.000e+00   -76.143   -76.169    -0.026     (0)  
   FeSO4+          0.000e+00   0.000e+00   -80.439   -80.446    -0.006     (0)  
   FeCl2+          0.000e+00   0.000e+00  -117.846  -117.852    -0.006     (0)  
   Fe(SO4)2-       0.000e+00   0.000e+00  -127.990  -127.996    -0.006     (0)  
   FeCl3           0.000e+00   0.000e+00  -161.186  -161.186     0.000     (0)  
H(0)          2.060e-05
   H2              1.030e-05   1.030e-05    -4.987    -4.987     0.000     (0)  
N(-3)         1.500e-04
   NH3             1.351e-04   1.351e-04    -3.869    -3.869     0.000     (0)  
   NH4+            1.488e-05   1.466e-05    -4.827    -4.834    -0.006     (0)  
   NH4SO4-         0.000e+00   0.000e+00   -52.768   -52.774    -0.006     (0)  
N(3)          0.000e+00
   NO2-            0.000e+00   0.000e+00   -69.406   -69.412    -0.006     (0)  
N(5)          0.000e+00
   NO3-            0.000e+00   0.000e+00   -96.138   -96.145    -0.006     (0)  
Na            1.500e-04
   Na+             1.500e-04   1.478e-04    -3.824    -3.830    -0.006     (0)  
   NaSO4-          0.000e+00   0.000e+00   -52.175   -52.181    -0.006     (0)  
O(0)          0.000e+00
   O2              0.000e+00   0.000e+00   -82.406   -82.406     0.000     (0)  
S(-2)         2.249e-12
   S6-2            3.749e-13   3.533e-13   -12.426   -12.452    -0.026     (0)  
   S5-2            9.750e-18   9.188e-18   -17.011   -17.037    -0.026     (0)  
   S4-2            4.207e-22   3.965e-22   -21.376   -21.402    -0.026     (0)  
   S3-2            1.094e-26   1.031e-26   -25.961   -25.987    -0.026     (0)  
   HS-             1.144e-33   1.127e-33   -32.942   -32.948    -0.006     (0)  
   S-2             2.335e-36   2.201e-36   -35.632   -35.657    -0.026     (0)  
   H2S             6.096e-37   6.096e-37   -36.215   -36.215     0.000     (0)  
   Fe(HS)2         0.000e+00   0.000e+00   -69.939   -69.939     0.000     (0)  
   Fe(HS)3-        0.000e+00   0.000e+00  -100.844  -100.850    -0.006     (0)  
S(6)          0.000e+00
   SO4-2           0.000e+00   0.000e+00   -49.025   -49.051    -0.026     (0)  
   NaSO4-          0.000e+00   0.000e+00   -52.175   -52.181    -0.006     (0)  
   NH4SO4-         0.000e+00   0.000e+00   -52.768   -52.774    -0.006     (0)  
   HSO4-           0.000e+00   0.000e+00   -57.266   -57.272    -0.006     (0)  
   FeSO4           0.000e+00   0.000e+00   -59.794   -59.794     0.000     (0)  
   FeSO4+          0.000e+00   0.000e+00   -80.439   -80.446    -0.006     (0)  
   Fe(SO4)2-       0.000e+00   0.000e+00  -127.990  -127.996    -0.006     (0)  

------------------------------Saturation indices-------------------------------

  Phase               SI** log IAP   log K(298 K,   1 atm)

  Fe(OH)2.7Cl0.3  -17.41    -20.45   -3.04  Fe(OH)2.7Cl0.3
  Fe2(SO4)3      -221.36   -217.78    3.58  Fe2(SO4)3
  Fe3(OH)8        -22.18     -1.95   20.22  Fe3(OH)8
  Ferrihydrite     -9.58     -4.69    4.89  Fe(OH)3
  FeS(ppt)        -31.82    -35.73   -3.92  FeS
  Goethite         -5.19     -4.69    0.50  FeOOH
  Greigite        -89.48   -148.52  -59.04  Fe3S4
  Halite          -47.75    -46.16    1.58  NaCl
  Hematite         -5.37     -9.38   -4.01  Fe2O3
  Jarosite-H     -140.90   -153.00  -12.10  (H3O)Fe3(SO4)2(OH)6
  Jarosite-Na    -135.43   -146.63  -11.20  NaFe3(SO4)2(OH)6
  Lepidocrocite    -6.06     -4.69    1.37  FeOOH
  Mackinawite     -33.60    -35.73   -2.14  FeS
  Maghemite       -15.76     -9.38    6.39  Fe2O3
  Magnetite        -5.69     -1.95    3.74  Fe3O4
  Melanterite     -59.57    -62.04   -2.47  FeSO4:7H2O
  Mirabilite      -55.60    -56.71   -1.11  Na2SO4:10H2O
  NaCl            -26.16    -46.16  -20.00  NaCl
  NaNO3           -79.98    -99.98  -20.00  NaNO3
  O2(g)           -79.45      3.67   83.12  O2
  pe_fix            9.29      9.29    0.00  e-
  pH_fix          -10.21    -10.21    0.00  H+
  Pyrite          -16.77    -77.05  -60.28  FeS2
  Pyrrhotite      -32.49    -35.73   -3.25  FeS
  Sulfur          -39.21    -54.24  -15.03  S
  Thenardite      -56.53    -56.71   -0.18  Na2SO4

**For a gas, SI = log10(fugacity). Fugacity = pressure * phi / 1 atm.
  For ideal gases, phi = 1.

Reaction step 2.

Using solution 1.	PURE WATER
Using pure phase assemblage 1.	
Using reaction 1.	

Reaction 1.	

	  1.000e-12 moles of the following reaction have been added:

	                 Relative
	Reactant            moles

	Fe1S3                1.00000

	                 Relative
	Element             moles
	Fe                   1.00000
	S                    3.00000

-------------------------------Phase assemblage--------------------------------

                                                      Moles in assemblage
Phase               SI  log IAP  log K(T, P)   Initial       Final       Delta

Greigite          6.72     0.00     -6.72    0.000e+00           0   0.000e+00
Mackinawite     -33.04   -35.18     -2.14    0.000e+00           0   0.000e+00
NaNO3           -81.88  -101.88    -20.00    0.000e+00           0   0.000e+00
Pyrite           10.07     0.00    -10.07    0.000e+00           0   0.000e+00
Pyrrhotite      -31.93   -35.18     -3.25    0.000e+00           0   0.000e+00
pH_fix          -10.00   -10.00      0.00
	 HCl                is reactant       1.000e+01   1.000e+01  -9.421e-05
pe_fix            9.29     9.29      0.00
	 O2                 is reactant       7.382e-01   7.382e-01   1.108e-05

-----------------------------Solution composition------------------------------

	Elements           Molality       Moles

	Cl                7.063e-05   9.421e-05
	Fe                1.500e-12   2.000e-12
	N                 1.500e-04   2.000e-04
	Na                1.500e-04   2.000e-04
	S                 4.499e-12   6.000e-12

----------------------------Description of solution----------------------------

                                       pH  =  10.000      Charge balance
                                       pe  =  -9.290      Adjusted to redox equilibrium
                        Activity of water  =   1.000
                 Ionic strength (mol/kgw)  =   1.726e-04
                       Mass of water (kg)  =   1.334e+00
                 Total alkalinity (eq/kg)  =   2.293e-04
                         Temperature (°C)  =  25.00
                  Electrical balance (eq)  =  -2.408e-15
 Percent error, 100*(Cat-|An|)/(Cat+|An|)  =  -0.00
                               Iterations  =  12
                                  Total H  = 1.480614e+02
                                  Total O  = 7.403040e+01

----------------------------Distribution of species----------------------------

                                               Log       Log       Log    mole V
   Species          Molality    Activity  Molality  Activity     Gamma    cm³/mol

   OH-             1.020e-04   1.005e-04    -3.991    -3.998    -0.007     (0)  
   H+              1.015e-10   1.000e-10    -9.994   -10.000    -0.006      0.00
   H2O             5.551e+01   1.000e+00     1.744    -0.000     0.000     18.07
Cl            7.063e-05
   Cl-             7.063e-05   6.957e-05    -4.151    -4.158    -0.007     (0)  
   FeCl+2          3.434e-38   3.233e-38   -37.464   -37.490    -0.026     (0)  
   FeCl2+          0.000e+00   0.000e+00   -40.991   -40.998    -0.007     (0)  
   FeCl3           0.000e+00   0.000e+00   -46.156   -46.156     0.000     (0)  
Fe(2)         1.500e-12
   FeOH+           1.037e-12   1.021e-12   -11.984   -11.991    -0.007     (0)  
   Fe+2            3.430e-13   3.230e-13   -12.465   -12.491    -0.026     (0)  
   Fe(OH)2         8.692e-14   8.692e-14   -13.061   -13.061     0.000     (0)  
   Fe(OH)3-        3.279e-14   3.230e-14   -13.484   -13.491    -0.007     (0)  
   FeSO4           0.000e+00   0.000e+00   -60.910   -60.910     0.000     (0)  
   Fe(HS)2         0.000e+00   0.000e+00   -68.920   -68.919     0.000     (0)  
   Fe(HS)3-        0.000e+00   0.000e+00   -99.565   -99.572    -0.007     (0)  
Fe(3)         3.963e-17
   Fe(OH)4-        3.924e-17   3.865e-17   -16.406   -16.413    -0.007     (0)  
   Fe(OH)3         3.865e-19   3.865e-19   -18.413   -18.413     0.000     (0)  
   Fe(OH)2+        3.340e-21   3.290e-21   -20.476   -20.483    -0.007     (0)  
   FeOH+2          1.055e-27   9.934e-28   -26.977   -27.003    -0.026     (0)  
   Fe+3            1.759e-35   1.539e-35   -34.755   -34.813    -0.058     (0)  
   FeCl+2          3.434e-38   3.233e-38   -37.464   -37.490    -0.026     (0)  
   FeCl2+          0.000e+00   0.000e+00   -40.991   -40.998    -0.007     (0)  
   FeCl3           0.000e+00   0.000e+00   -46.156   -46.156     0.000     (0)  
   Fe2(OH)2+4      0.000e+00   0.000e+00   -52.470   -52.576    -0.105     (0)  
   Fe3(OH)4+5      0.000e+00   0.000e+00   -70.574   -70.739    -0.165     (0)  
   FeSO4+          0.000e+00   0.000e+00   -81.556   -81.562    -0.007     (0)  
   Fe(SO4)2-       0.000e+00   0.000e+00  -130.725  -130.732    -0.007     (0)  
H(0)          5.383e-05
   H2              2.691e-05   2.692e-05    -4.570    -4.570     0.000     (0)  
N(-3)         1.500e-04
   NH3             1.273e-04   1.273e-04    -3.895    -3.895     0.000     (0)  
   NH4+            2.268e-05   2.234e-05    -4.644    -4.651    -0.007     (0)  
   NH4SO4-         0.000e+00   0.000e+00   -54.204   -54.210    -0.007     (0)  
N(3)          0.000e+00
   NO2-            0.000e+00   0.000e+00   -70.891   -70.898    -0.007     (0)  
N(5)          0.000e+00
   NO3-            0.000e+00   0.000e+00   -98.041   -98.048    -0.007     (0)  
Na            1.500e-04
   Na+             1.500e-04   1.477e-04    -3.824    -3.831    -0.007     (0)  
   NaSO4-          0.000e+00   0.000e+00   -53.793   -53.800    -0.007     (0)  
O(0)          0.000e+00
   O2              0.000e+00   0.000e+00   -83.240   -83.240     0.000     (0)  
S(-2)         4.499e-12
   S6-2            7.498e-13   7.056e-13   -12.125   -12.151    -0.026     (0)  
   S5-2            1.738e-17   1.635e-17   -16.760   -16.786    -0.026     (0)  
   S4-2            6.681e-22   6.288e-22   -21.175   -21.201    -0.026     (0)  
   S3-2            1.548e-26   1.457e-26   -25.810   -25.836    -0.026     (0)  
   HS-             2.076e-33   2.045e-33   -32.683   -32.689    -0.007     (0)  
   S-2             2.624e-36   2.470e-36   -35.581   -35.607    -0.026     (0)  
   H2S             1.788e-36   1.788e-36   -35.748   -35.748     0.000     (0)  
   Fe(HS)2         0.000e+00   0.000e+00   -68.920   -68.919     0.000     (0)  
   Fe(HS)3-        0.000e+00   0.000e+00   -99.565   -99.572    -0.007     (0)  
S(6)          0.000e+00
   SO4-2           0.000e+00   0.000e+00   -50.643   -50.669    -0.026     (0)  
   NaSO4-          0.000e+00   0.000e+00   -53.793   -53.800    -0.007     (0)  
   NH4SO4-         0.000e+00   0.000e+00   -54.204   -54.210    -0.007     (0)  
   HSO4-           0.000e+00   0.000e+00   -58.676   -58.682    -0.007     (0)  
   FeSO4           0.000e+00   0.000e+00   -60.910   -60.910     0.000     (0)  
   FeSO4+          0.000e+00   0.000e+00   -81.556   -81.562    -0.007     (0)  
   Fe(SO4)2-       0.000e+00   0.000e+00  -130.725  -130.732    -0.007     (0)  

------------------------------Saturation indices-------------------------------

  Phase               SI** log IAP   log K(298 K,   1 atm)

  Fe(OH)2.7Cl0.3   -6.02     -9.06   -3.04  Fe(OH)2.7Cl0.3
  Fe2(SO4)3      -225.21   -221.63    3.58  Fe2(SO4)3
  Fe3(OH)8        -22.34     -2.12   20.22  Fe3(OH)8
  Ferrihydrite     -9.70     -4.81    4.89  Fe(OH)3
  FeS(ppt)        -31.27    -35.18   -3.92  FeS
  Goethite         -5.31     -4.81    0.50  FeOOH
  Greigite        -87.77   -146.81  -59.04  Fe3S4
  Halite           -9.57     -7.99    1.58  NaCl
  Hematite         -5.62     -9.63   -4.01  Fe2O3
  Jarosite-H     -143.68   -155.78  -12.10  (H3O)Fe3(SO4)2(OH)6
  Jarosite-Na    -138.41   -149.61  -11.20  NaFe3(SO4)2(OH)6
  Lepidocrocite    -6.18     -4.81    1.37  FeOOH
  Mackinawite     -33.04    -35.18   -2.14  FeS
  Maghemite       -16.01     -9.63    6.39  Fe2O3
  Magnetite        -5.85     -2.12    3.74  Fe3O4
  Melanterite     -60.69    -63.16   -2.47  FeSO4:7H2O
  Mirabilite      -57.22    -58.33   -1.11  Na2SO4:10H2O
  NaCl             12.01     -7.99  -20.00  NaCl
  NaNO3           -81.88   -101.88  -20.00  NaNO3
  O2(g)           -80.28      2.84   83.12  O2
  pe_fix            9.29      9.29    0.00  e-
  pH_fix          -10.00    -10.00    0.00  H+
  Pyrite          -16.17    -76.45  -60.28  FeS2
  Pyrrhotite      -31.93    -35.18   -3.25  FeS
  Sulfur          -39.16    -54.19  -15.03  S
  Thenardite      -58.15    -58.33   -0.18  Na2SO4

**For a gas, SI = log10(fugacity). Fugacity = pressure * phi / 1 atm.
  For ideal gases, phi = 1.

Reaction step 3.

Using solution 1.	PURE WATER
Using pure phase assemblage 1.	
Using reaction 1.	

Reaction 1.	

	  1.000e-12 moles of the following reaction have been added:

	                 Relative
	Reactant            moles

	Fe1S3                1.00000

	                 Relative
	Element             moles
	Fe                   1.00000
	S                    3.00000

-------------------------------Phase assemblage--------------------------------

                                                      Moles in assemblage
Phase               SI  log IAP  log K(T, P)   Initial       Final       Delta

Greigite          6.72     0.00     -6.72    0.000e+00           0   0.000e+00
Mackinawite     -32.84   -34.97     -2.14    0.000e+00           0   0.000e+00
NaNO3           -81.88  -101.88    -20.00    0.000e+00           0   0.000e+00
Pyrite           10.07     0.00    -10.07    0.000e+00           0   0.000e+00
Pyrrhotite      -31.73   -34.97     -3.25    0.000e+00           0   0.000e+00
pH_fix          -10.00   -10.00      0.00
	 HCl                is reactant       1.000e+01   1.000e+01  -1.208e-13
pe_fix            9.29     9.29      0.00
	 O2                 is reactant       7.382e-01   7.382e-01  -2.400e-13

-----------------------------Solution composition------------------------------

	Elements           Molality       Moles

	Cl                7.063e-05   9.421e-05
	Fe                2.249e-12   3.000e-12
	N                 1.500e-04   2.000e-04
	Na                1.500e-04   2.000e-04
	S                 6.748e-12   9.000e-12

----------------------------Description of solution----------------------------

                                       pH  =  10.000      Charge balance
                                       pe  =  -9.290      Adjusted to redox equilibrium
                        Activity of water  =   1.000
                 Ionic strength (mol/kgw)  =   1.726e-04
                       Mass of water (kg)  =   1.334e+00
                 Total alkalinity (eq/kg)  =   2.293e-04
                         Temperature (°C)  =  25.00
                  Electrical balance (eq)  =  -2.408e-15
 Percent error, 100*(Cat-|An|)/(Cat+|An|)  =  -0.00
                               Iterations  =   4
                                  Total H  = 1.480614e+02
                                  Total O  = 7.403040e+01

----------------------------Distribution of species----------------------------

                                               Log       Log       Log    mole V
   Species          Molality    Activity  Molality  Activity     Gamma    cm³/mol

   OH-             1.020e-04   1.005e-04    -3.991    -3.998    -0.007     (0)  
   H+              1.015e-10   1.000e-10    -9.994   -10.000    -0.006      0.00
   H2O             5.551e+01   1.000e+00     1.744    -0.000     0.000     18.07
Cl            7.063e-05
   Cl-             7.063e-05   6.957e-05    -4.151    -4.158    -0.007     (0)  
   FeCl+2          5.151e-38   4.849e-38   -37.288   -37.314    -0.026     (0)  
   FeCl2+          0.000e+00   0.000e+00   -40.815   -40.822    -0.007     (0)  
   FeCl3           0.000e+00   0.000e+00   -45.980   -45.980     0.000     (0)  
Fe(2)         2.249e-12
   FeOH+           1.555e-12   1.532e-12   -11.808   -11.815    -0.007     (0)  
   Fe+2            5.145e-13   4.844e-13   -12.289   -12.315    -0.026     (0)  
   Fe(OH)2         1.304e-13   1.304e-13   -12.885   -12.885     0.000     (0)  
   Fe(OH)3-        4.918e-14   4.844e-14   -13.308   -13.315    -0.007     (0)  
   FeSO4           0.000e+00   0.000e+00   -60.705   -60.705     0.000     (0)  
   Fe(HS)2         0.000e+00   0.000e+00   -68.685   -68.685     0.000     (0)  
   Fe(HS)3-        0.000e+00   0.000e+00   -99.301   -99.308    -0.007     (0)  
Fe(3)         5.944e-17
   Fe(OH)4-        5.885e-17   5.797e-17   -16.230   -16.237    -0.007     (0)  
   Fe(OH)3         5.797e-19   5.797e-19   -18.237   -18.237     0.000     (0)  
   Fe(OH)2+        5.009e-21   4.934e-21   -20.300   -20.307    -0.007     (0)  
   FeOH+2          1.583e-27   1.490e-27   -26.801   -26.827    -0.026     (0)  
   Fe+3            2.638e-35   2.308e-35   -34.579   -34.637    -0.058     (0)  
   FeCl+2          5.151e-38   4.849e-38   -37.288   -37.314    -0.026     (0)  
   FeCl2+          0.000e+00   0.000e+00   -40.815   -40.822    -0.007     (0)  
   FeCl3           0.000e+00   0.000e+00   -45.980   -45.980     0.000     (0)  
   Fe2(OH)2+4      0.000e+00   0.000e+00   -52.118   -52.224    -0.105     (0)  
   Fe3(OH)4+5      0.000e+00   0.000e+00   -70.046   -70.210    -0.165     (0)  
   FeSO4+          0.000e+00   0.000e+00   -81.350   -81.357    -0.007     (0)  
   Fe(SO4)2-       0.000e+00   0.000e+00  -130.490  -130.497    -0.007     (0)  
H(0)          5.383e-05
   H2              2.691e-05   2.692e-05    -4.570    -4.570     0.000     (0)  
N(-3)         1.500e-04
   NH3             1.273e-04   1.273e-04    -3.895    -3.895     0.000     (0)  
   NH4+            2.268e-05   2.234e-05    -4.644    -4.651    -0.007     (0)  
   NH4SO4-         0.000e+00   0.000e+00   -54.174   -54.181    -0.007     (0)  
N(3)          0.000e+00
   NO2-            0.000e+00   0.000e+00   -70.891   -70.898    -0.007     (0)  
N(5)          0.000e+00
   NO3-            0.000e+00   0.000e+00   -98.041   -98.048    -0.007     (0)  
Na            1.500e-04
   Na+             1.500e-04   1.477e-04    -3.824    -3.831    -0.007     (0)  
   NaSO4-          0.000e+00   0.000e+00   -53.764   -53.771    -0.007     (0)  
O(0)          0.000e+00
   O2              0.000e+00   0.000e+00   -83.240   -83.240     0.000     (0)  
S(-2)         6.748e-12
   S6-2            1.125e-12   1.058e-12   -11.949   -11.975    -0.026     (0)  
   S5-2            2.436e-17   2.293e-17   -16.613   -16.640    -0.026     (0)  
   S4-2            8.755e-22   8.240e-22   -21.058   -21.084    -0.026     (0)  
   S3-2            1.896e-26   1.785e-26   -25.722   -25.748    -0.026     (0)  
   HS-             2.221e-33   2.188e-33   -32.653   -32.660    -0.007     (0)  
   S-2             2.807e-36   2.643e-36   -35.552   -35.578    -0.026     (0)  
   H2S             1.913e-36   1.913e-36   -35.718   -35.718     0.000     (0)  
   Fe(HS)2         0.000e+00   0.000e+00   -68.685   -68.685     0.000     (0)  
   Fe(HS)3-        0.000e+00   0.000e+00   -99.301   -99.308    -0.007     (0)  
S(6)          0.000e+00
   SO4-2           0.000e+00   0.000e+00   -50.614   -50.640    -0.026     (0)  
   NaSO4-          0.000e+00   0.000e+00   -53.764   -53.771    -0.007     (0)  
   NH4SO4-         0.000e+00   0.000e+00   -54.174   -54.181    -0.007     (0)  
   HSO4-           0.000e+00   0.000e+00   -58.646   -58.653    -0.007     (0)  
   FeSO4           0.000e+00   0.000e+00   -60.705   -60.705     0.000     (0)  
   FeSO4+          0.000e+00   0.000e+00   -81.350   -81.357    -0.007     (0)  
   Fe(SO4)2-       0.000e+00   0.000e+00  -130.490  -130.497    -0.007     (0)  

------------------------------Saturation indices-------------------------------

  Phase               SI** log IAP   log K(298 K,   1 atm)

  Fe(OH)2.7Cl0.3   -5.84     -8.88   -3.04  Fe(OH)2.7Cl0.3
  Fe2(SO4)3      -224.77   -221.19    3.58  Fe2(SO4)3
  Fe3(OH)8        -21.81     -1.59   20.22  Fe3(OH)8
  Ferrihydrite     -9.53     -4.64    4.89  Fe(OH)3
  FeS(ppt)        -31.06    -34.97   -3.92  FeS
  Goethite         -5.14     -4.64    0.50  FeOOH
  Greigite        -87.13   -146.16  -59.04  Fe3S4
  Halite           -9.57     -7.99    1.58  NaCl
  Hematite         -5.27     -9.27   -4.01  Fe2O3
  Jarosite-H     -143.09   -155.19  -12.10  (H3O)Fe3(SO4)2(OH)6
  Jarosite-Na    -137.82   -149.02  -11.20  NaFe3(SO4)2(OH)6
  Lepidocrocite    -6.01     -4.64    1.37  FeOOH
  Mackinawite     -32.84    -34.97   -2.14  FeS
  Maghemite       -15.66     -9.27    6.39  Fe2O3
  Magnetite        -5.33     -1.59    3.74  Fe3O4
  Melanterite     -60.48    -62.95   -2.47  FeSO4:7H2O
  Mirabilite      -57.19    -58.30   -1.11  Na2SO4:10H2O
  NaCl             12.01     -7.99  -20.00  NaCl
  NaNO3           -81.88   -101.88  -20.00  NaNO3
  O2(g)           -80.28      2.84   83.12  O2
  pe_fix            9.29      9.29    0.00  e-
  pH_fix          -10.00    -10.00    0.00  H+
  Pyrite          -15.93    -76.21  -60.28  FeS2
  Pyrrhotite      -31.73    -34.97   -3.25  FeS
  Sulfur          -39.13    -54.16  -15.03  S
  Thenardite      -58.12    -58.30   -0.18  Na2SO4

**For a gas, SI = log10(fugacity). Fugacity = pressure * phi / 1 atm.
  For ideal gases, phi = 1.

Reaction step 4.

Using solution 1.	PURE WATER
Using pure phase assemblage 1.	
Using reaction 1.	

Reaction 1.	

	  1.000e-12 moles of the following reaction have been added:

	                 Relative
	Reactant            moles

	Fe1S3                1.00000

	                 Relative
	Element             moles
	Fe                   1.00000
	S                    3.00000

-------------------------------Phase assemblage--------------------------------

                                                      Moles in assemblage
Phase               SI  log IAP  log K(T, P)   Initial       Final       Delta

Greigite          6.72     0.00     -6.72    0.000e+00           0   0.000e+00
Mackinawite     -32.69   -34.83     -2.14    0.000e+00           0   0.000e+00
NaNO3           -81.88  -101.88    -20.00    0.000e+00           0   0.000e+00
Pyrite           10.07     0.00    -10.07    0.000e+00           0   0.000e+00
Pyrrhotite      -31.58   -34.83     -3.25    0.000e+00           0   0.000e+00
pH_fix          -10.00   -10.00      0.00
	 HCl                is reactant       1.000e+01   1.000e+01  -1.208e-13
pe_fix            9.29     9.29      0.00
	 O2                 is reactant       7.382e-01   7.382e-01  -2.539e-13

-----------------------------Solution composition------------------------------

	Elements           Molality       Moles

	Cl                7.063e-05   9.421e-05
	Fe                2.999e-12   4.000e-12
	N                 1.500e-04   2.000e-04
	Na                1.500e-04   2.000e-04
	S                 8.997e-12   1.200e-11

----------------------------Description of solution----------------------------

                                       pH  =  10.000      Charge balance
                                       pe  =  -9.290      Adjusted to redox equilibrium
                        Activity of water  =   1.000
                 Ionic strength (mol/kgw)  =   1.726e-04
                       Mass of water (kg)  =   1.334e+00
                 Total alkalinity (eq/kg)  =   2.293e-04
                         Temperature (°C)  =  25.00
                  Electrical balance (eq)  =  -2.408e-15
 Percent error, 100*(Cat-|An|)/(Cat+|An|)  =  -0.00
                               Iterations  =   4
                                  Total H  = 1.480614e+02
                                  Total O  = 7.403040e+01

----------------------------Distribution of species----------------------------

                                               Log       Log       Log    mole V
   Species          Molality    Activity  Molality  Activity     Gamma    cm³/mol

   OH-             1.020e-04   1.005e-04    -3.991    -3.998    -0.007     (0)  
   H+              1.015e-10   1.000e-10    -9.994   -10.000    -0.006      0.00
   H2O             5.551e+01   1.000e+00     1.744    -0.000     0.000     18.07
Cl            7.063e-05
   Cl-             7.063e-05   6.957e-05    -4.151    -4.158    -0.007     (0)  
   FeCl+2          6.868e-38   6.465e-38   -37.163   -37.189    -0.026     (0)  
   FeCl2+          0.000e+00   0.000e+00   -40.690   -40.697    -0.007     (0)  
   FeCl3           0.000e+00   0.000e+00   -45.855   -45.855     0.000     (0)  
Fe(2)         2.999e-12
   FeOH+           2.074e-12   2.043e-12   -11.683   -11.690    -0.007     (0)  
   Fe+2            6.860e-13   6.459e-13   -12.164   -12.190    -0.026     (0)  
   Fe(OH)2         1.738e-13   1.738e-13   -12.760   -12.760     0.000     (0)  
   Fe(OH)3-        6.557e-14   6.459e-14   -13.183   -13.190    -0.007     (0)  
   FeSO4           0.000e+00   0.000e+00   -60.559   -60.559     0.000     (0)  
   Fe(HS)2         0.000e+00   0.000e+00   -68.518   -68.518     0.000     (0)  
   Fe(HS)3-        0.000e+00   0.000e+00   -99.114   -99.120    -0.007     (0)  
Fe(3)         7.925e-17
   Fe(OH)4-        7.847e-17   7.730e-17   -16.105   -16.112    -0.007     (0)  
   Fe(OH)3         7.729e-19   7.730e-19   -18.112   -18.112     0.000     (0)  
   Fe(OH)2+        6.679e-21   6.579e-21   -20.175   -20.182    -0.007     (0)  
   FeOH+2          2.111e-27   1.987e-27   -26.676   -26.702    -0.026     (0)  
   Fe+3            3.517e-35   3.077e-35   -34.454   -34.512    -0.058     (0)  
   FeCl+2          6.868e-38   6.465e-38   -37.163   -37.189    -0.026     (0)  
   FeCl2+          0.000e+00   0.000e+00   -40.690   -40.697    -0.007     (0)  
   FeCl3           0.000e+00   0.000e+00   -45.855   -45.855     0.000     (0)  
   Fe2(OH)2+4      0.000e+00   0.000e+00   -51.868   -51.974    -0.105     (0)  
   Fe3(OH)4+5      0.000e+00   0.000e+00   -69.671   -69.835    -0.165     (0)  
   FeSO4+          0.000e+00   0.000e+00   -81.204   -81.211    -0.007     (0)  
   Fe(SO4)2-       0.000e+00   0.000e+00  -130.324  -130.330    -0.007     (0)  
H(0)          5.383e-05
   H2              2.691e-05   2.692e-05    -4.570    -4.570     0.000     (0)  
N(-3)         1.500e-04
   NH3             1.273e-04   1.273e-04    -3.895    -3.895     0.000     (0)  
   NH4+            2.268e-05   2.234e-05    -4.644    -4.651    -0.007     (0)  
   NH4SO4-         0.000e+00   0.000e+00   -54.154   -54.160    -0.007     (0)  
N(3)          0.000e+00
   NO2-            0.000e+00   0.000e+00   -70.891   -70.898    -0.007     (0)  
N(5)          0.000e+00
   NO3-            0.000e+00   0.000e+00   -98.041   -98.048    -0.007     (0)  
Na            1.500e-04
   Na+             1.500e-04   1.477e-04    -3.824    -3.831    -0.007     (0)  
   NaSO4-          0.000e+00   0.000e+00   -53.743   -53.750    -0.007     (0)  
O(0)          0.000e+00
   O2              0.000e+00   0.000e+00   -83.240   -83.240     0.000     (0)  
S(-2)         8.997e-12
   S6-2            1.500e-12   1.411e-12   -11.824   -11.850    -0.026     (0)  
   S5-2            3.096e-17   2.914e-17   -16.509   -16.536    -0.026     (0)  
   S4-2            1.061e-21   9.982e-22   -20.974   -21.001    -0.026     (0)  
   S3-2            2.190e-26   2.061e-26   -25.660   -25.686    -0.026     (0)  
   HS-             2.331e-33   2.295e-33   -32.633   -32.639    -0.007     (0)  
   S-2             2.945e-36   2.772e-36   -35.531   -35.557    -0.026     (0)  
   H2S             2.007e-36   2.007e-36   -35.697   -35.697     0.000     (0)  
   Fe(HS)2         0.000e+00   0.000e+00   -68.518   -68.518     0.000     (0)  
   Fe(HS)3-        0.000e+00   0.000e+00   -99.114   -99.120    -0.007     (0)  
S(6)          0.000e+00
   SO4-2           0.000e+00   0.000e+00   -50.593   -50.619    -0.026     (0)  
   NaSO4-          0.000e+00   0.000e+00   -53.743   -53.750    -0.007     (0)  
   NH4SO4-         0.000e+00   0.000e+00   -54.154   -54.160    -0.007     (0)  
   HSO4-           0.000e+00   0.000e+00   -58.626   -58.632    -0.007     (0)  
   FeSO4           0.000e+00   0.000e+00   -60.559   -60.559     0.000     (0)  
   FeSO4+          0.000e+00   0.000e+00   -81.204   -81.211    -0.007     (0)  
   Fe(SO4)2-       0.000e+00   0.000e+00  -130.324  -130.330    -0.007     (0)  

------------------------------Saturation indices-------------------------------

  Phase               SI** log IAP   log K(298 K,   1 atm)

  Fe(OH)2.7Cl0.3   -5.72     -8.76   -3.04  Fe(OH)2.7Cl0.3
  Fe2(SO4)3      -224.46   -220.88    3.58  Fe2(SO4)3
  Fe3(OH)8        -21.44     -1.21   20.22  Fe3(OH)8
  Ferrihydrite     -9.40     -4.51    4.89  Fe(OH)3
  FeS(ppt)        -30.91    -34.83   -3.92  FeS
  Goethite         -5.01     -4.51    0.50  FeOOH
  Greigite        -86.67   -145.71  -59.04  Fe3S4
  Halite           -9.57     -7.99    1.58  NaCl
  Hematite         -5.02     -9.02   -4.01  Fe2O3
  Jarosite-H     -142.67   -154.77  -12.10  (H3O)Fe3(SO4)2(OH)6
  Jarosite-Na    -137.40   -148.60  -11.20  NaFe3(SO4)2(OH)6
  Lepidocrocite    -5.88     -4.51    1.37  FeOOH
  Mackinawite     -32.69    -34.83   -2.14  FeS
  Maghemite       -15.41     -9.02    6.39  Fe2O3
  Magnetite        -4.95     -1.21    3.74  Fe3O4
  Melanterite     -60.34    -62.81   -2.47  FeSO4:7H2O
  Mirabilite      -57.17    -58.28   -1.11  Na2SO4:10H2O
  NaCl             12.01     -7.99  -20.00  NaCl
  NaNO3           -81.88   -101.88  -20.00  NaNO3
  O2(g)           -80.28      2.84   83.12  O2
  pe_fix            9.29      9.29    0.00  e-
  pH_fix          -10.00    -10.00    0.00  H+
  Pyrite          -15.76    -76.05  -60.28  FeS2
  Pyrrhotite      -31.58    -34.83   -3.25  FeS
  Sulfur          -39.11    -54.14  -15.03  S
  Thenardite      -58.10    -58.28   -0.18  Na2SO4

**For a gas, SI = log10(fugacity). Fugacity = pressure * phi / 1 atm.
  For ideal gases, phi = 1.

Reaction step 5.

Using solution 1.	PURE WATER
Using pure phase assemblage 1.	
Using reaction 1.	

Reaction 1.	

	  1.000e-12 moles of the following reaction have been added:

	                 Relative
	Reactant            moles

	Fe1S3                1.00000

	                 Relative
	Element             moles
	Fe                   1.00000
	S                    3.00000

-------------------------------Phase assemblage--------------------------------

                                                      Moles in assemblage
Phase               SI  log IAP  log K(T, P)   Initial       Final       Delta

Greigite          6.72     0.00     -6.72    0.000e+00           0   0.000e+00
Mackinawite     -32.58   -34.72     -2.14    0.000e+00           0   0.000e+00
NaNO3           -81.88  -101.88    -20.00    0.000e+00           0   0.000e+00
Pyrite           10.07     0.00    -10.07    0.000e+00           0   0.000e+00
Pyrrhotite      -31.47   -34.72     -3.25    0.000e+00           0   0.000e+00
pH_fix          -10.00   -10.00      0.00
	 HCl                is reactant       1.000e+01   1.000e+01  -1.208e-13
pe_fix            9.29     9.29      0.00
	 O2                 is reactant       7.382e-01   7.382e-01  -2.536e-13

-----------------------------Solution composition------------------------------

	Elements           Molality       Moles

	Cl                7.063e-05   9.421e-05
	Fe                3.749e-12   5.000e-12
	N                 1.500e-04   2.000e-04
	Na                1.500e-04   2.000e-04
	S                 1.125e-11   1.500e-11

----------------------------Description of solution----------------------------

                                       pH  =  10.000      Charge balance
                                       pe  =  -9.290      Adjusted to redox equilibrium
                        Activity of water  =   1.000
                 Ionic strength (mol/kgw)  =   1.726e-04
                       Mass of water (kg)  =   1.334e+00
                 Total alkalinity (eq/kg)  =   2.293e-04
                         Temperature (°C)  =  25.00
                  Electrical balance (eq)  =  -2.408e-15
 Percent error, 100*(Cat-|An|)/(Cat+|An|)  =  -0.00
                               Iterations  =   3
                                  Total H  = 1.480614e+02
                                  Total O  = 7.403040e+01

----------------------------Distribution of species----------------------------

                                               Log       Log       Log    mole V
   Species          Molality    Activity  Molality  Activity     Gamma    cm³/mol

   OH-             1.020e-04   1.005e-04    -3.991    -3.998    -0.007     (0)  
   H+              1.015e-10   1.000e-10    -9.994   -10.000    -0.006      0.00
   H2O             5.551e+01   1.000e+00     1.744    -0.000     0.000     18.07
Cl            7.063e-05
   Cl-             7.063e-05   6.957e-05    -4.151    -4.158    -0.007     (0)  
   FeCl+2          8.585e-38   8.082e-38   -37.066   -37.093    -0.026     (0)  
   FeCl2+          0.000e+00   0.000e+00   -40.594   -40.600    -0.007     (0)  
   FeCl3           0.000e+00   0.000e+00   -45.758   -45.758     0.000     (0)  
Fe(2)         3.749e-12
   FeOH+           2.592e-12   2.553e-12   -11.586   -11.593    -0.007     (0)  
   Fe+2            8.575e-13   8.074e-13   -12.067   -12.093    -0.026     (0)  
   Fe(OH)2         2.173e-13   2.173e-13   -12.663   -12.663     0.000     (0)  
   Fe(OH)3-        8.197e-14   8.074e-14   -13.086   -13.093    -0.007     (0)  
   FeSO4           0.000e+00   0.000e+00   -60.446   -60.446     0.000     (0)  
   Fe(HS)2         0.000e+00   0.000e+00   -68.389   -68.389     0.000     (0)  
   Fe(HS)3-        0.000e+00   0.000e+00   -98.968   -98.975    -0.007     (0)  
Fe(3)         9.906e-17
   Fe(OH)4-        9.809e-17   9.662e-17   -16.008   -16.015    -0.007     (0)  
   Fe(OH)3         9.662e-19   9.662e-19   -18.015   -18.015     0.000     (0)  
   Fe(OH)2+        8.349e-21   8.224e-21   -20.078   -20.085    -0.007     (0)  
   FeOH+2          2.638e-27   2.484e-27   -26.579   -26.605    -0.026     (0)  
   Fe+3            4.397e-35   3.847e-35   -34.357   -34.415    -0.058     (0)  
   FeCl+2          8.585e-38   8.082e-38   -37.066   -37.093    -0.026     (0)  
   FeCl2+          0.000e+00   0.000e+00   -40.594   -40.600    -0.007     (0)  
   FeCl3           0.000e+00   0.000e+00   -45.758   -45.758     0.000     (0)  
   Fe2(OH)2+4      0.000e+00   0.000e+00   -51.674   -51.780    -0.105     (0)  
   Fe3(OH)4+5      0.000e+00   0.000e+00   -69.380   -69.545    -0.165     (0)  
   FeSO4+          0.000e+00   0.000e+00   -81.091   -81.098    -0.007     (0)  
   Fe(SO4)2-       0.000e+00   0.000e+00  -130.194  -130.201    -0.007     (0)  
H(0)          5.383e-05
   H2              2.691e-05   2.692e-05    -4.570    -4.570     0.000     (0)  
N(-3)         1.500e-04
   NH3             1.273e-04   1.273e-04    -3.895    -3.895     0.000     (0)  
   NH4+            2.268e-05   2.234e-05    -4.644    -4.651    -0.007     (0)  
   NH4SO4-         0.000e+00   0.000e+00   -54.137   -54.144    -0.007     (0)  
N(3)          0.000e+00
   NO2-            0.000e+00   0.000e+00   -70.891   -70.898    -0.007     (0)  
N(5)          0.000e+00
   NO3-            0.000e+00   0.000e+00   -98.041   -98.048    -0.007     (0)  
Na            1.500e-04
   Na+             1.500e-04   1.477e-04    -3.824    -3.831    -0.007     (0)  
   NaSO4-          0.000e+00   0.000e+00   -53.727   -53.734    -0.007     (0)  
O(0)          0.000e+00
   O2              0.000e+00   0.000e+00   -83.240   -83.240     0.000     (0)  
S(-2)         1.125e-11
   S6-2            1.874e-12   1.764e-12   -11.727   -11.753    -0.026     (0)  
   S5-2            3.729e-17   3.509e-17   -16.428   -16.455    -0.026     (0)  
   S4-2            1.231e-21   1.158e-21   -20.910   -20.936    -0.026     (0)  
   S3-2            2.448e-26   2.304e-26   -25.611   -25.637    -0.026     (0)  
   HS-             2.419e-33   2.382e-33   -32.616   -32.623    -0.007     (0)  
   S-2             3.057e-36   2.877e-36   -35.515   -35.541    -0.026     (0)  
   H2S             2.083e-36   2.083e-36   -35.681   -35.681     0.000     (0)  
   Fe(HS)2         0.000e+00   0.000e+00   -68.389   -68.389     0.000     (0)  
   Fe(HS)3-        0.000e+00   0.000e+00   -98.968   -98.975    -0.007     (0)  
S(6)          0.000e+00
   SO4-2           0.000e+00   0.000e+00   -50.577   -50.603    -0.026     (0)  
   NaSO4-          0.000e+00   0.000e+00   -53.727   -53.734    -0.007     (0)  
   NH4SO4-         0.000e+00   0.000e+00   -54.137   -54.144    -0.007     (0)  
   HSO4-           0.000e+00   0.000e+00   -58.609   -58.616    -0.007     (0)  
   FeSO4           0.000e+00   0.000e+00   -60.446   -60.446     0.000     (0)  
   FeSO4+          0.000e+00   0.000e+00   -81.091   -81.098    -0.007     (0)  
   Fe(SO4)2-       0.000e+00   0.000e+00  -130.194  -130.201    -0.007     (0)  

------------------------------Saturation indices-------------------------------

  Phase               SI** log IAP   log K(298 K,   1 atm)

  Fe(OH)2.7Cl0.3   -5.62     -8.66   -3.04  Fe(OH)2.7Cl0.3
  Fe2(SO4)3      -224.22   -220.64    3.58  Fe2(SO4)3
  Fe3(OH)8        -21.14     -0.92   20.22  Fe3(OH)8
  Ferrihydrite     -9.31     -4.41    4.89  Fe(OH)3
  FeS(ppt)        -30.80    -34.72   -3.92  FeS
  Goethite         -4.91     -4.41    0.50  FeOOH
  Greigite        -86.31   -145.35  -59.04  Fe3S4
  Halite           -9.57     -7.99    1.58  NaCl
  Hematite         -4.82     -8.83   -4.01  Fe2O3
  Jarosite-H     -142.35   -154.45  -12.10  (H3O)Fe3(SO4)2(OH)6
  Jarosite-Na    -137.08   -148.28  -11.20  NaFe3(SO4)2(OH)6
  Lepidocrocite    -5.79     -4.41    1.37  FeOOH
  Mackinawite     -32.58    -34.72   -2.14  FeS
  Maghemite       -15.22     -8.83    6.39  Fe2O3
  Magnetite        -4.66     -0.92    3.74  Fe3O4
  Melanterite     -60.23    -62.70   -2.47  FeSO4:7H2O
  Mirabilite      -57.15    -58.26   -1.11  Na2SO4:10H2O
  NaCl             12.01     -7.99  -20.00  NaCl
  NaNO3           -81.88   -101.88  -20.00  NaNO3
  O2(g)           -80.28      2.84   83.12  O2
  pe_fix            9.29      9.29    0.00  e-
  pH_fix          -10.00    -10.00    0.00  H+
  Pyrite          -15.64    -75.92  -60.28  FeS2
  Pyrrhotite      -31.47    -34.72   -3.25  FeS
  Sulfur          -39.09    -54.12  -15.03  S
  Thenardite      -58.09    -58.26   -0.18  Na2SO4

**For a gas, SI = log10(fugacity). Fugacity = pressure * phi / 1 atm.
  For ideal gases, phi = 1.

Reaction step 6.

Using solution 1.	PURE WATER
Using pure phase assemblage 1.	
Using reaction 1.	

Reaction 1.	

	  1.000e-12 moles of the following reaction have been added:

	                 Relative
	Reactant            moles

	Fe1S3                1.00000

	                 Relative
	Element             moles
	Fe                   1.00000
	S                    3.00000

-------------------------------Phase assemblage--------------------------------

                                                      Moles in assemblage
Phase               SI  log IAP  log K(T, P)   Initial       Final       Delta

Greigite          6.72     0.00     -6.72    0.000e+00           0   0.000e+00
Mackinawite     -32.49   -34.62     -2.14    0.000e+00           0   0.000e+00
NaNO3           -81.88  -101.88    -20.00    0.000e+00           0   0.000e+00
Pyrite           10.07     0.00    -10.07    0.000e+00           0   0.000e+00
Pyrrhotite      -31.38   -34.62     -3.25    0.000e+00           0   0.000e+00
pH_fix          -10.00   -10.00      0.00
	 HCl                is reactant       1.000e+01   1.000e+01  -1.208e-13
pe_fix            9.29     9.29      0.00
	 O2                 is reactant       7.382e-01   7.382e-01  -2.532e-13

-----------------------------Solution composition------------------------------

	Elements           Molality       Moles

	Cl                7.063e-05   9.421e-05
	Fe                4.499e-12   6.000e-12
	N                 1.500e-04   2.000e-04
	Na                1.500e-04   2.000e-04
	S                 1.350e-11   1.800e-11

----------------------------Description of solution----------------------------

                                       pH  =  10.000      Charge balance
                                       pe  =  -9.290      Adjusted to redox equilibrium
                        Activity of water  =   1.000
                 Ionic strength (mol/kgw)  =   1.726e-04
                       Mass of water (kg)  =   1.334e+00
                 Total alkalinity (eq/kg)  =   2.293e-04
                         Temperature (°C)  =  25.00
                  Electrical balance (eq)  =  -2.408e-15
 Percent error, 100*(Cat-|An|)/(Cat+|An|)  =  -0.00
                               Iterations  =   3
                                  Total H  = 1.480614e+02
                                  Total O  = 7.403040e+01

----------------------------Distribution of species----------------------------

                                               Log       Log       Log    mole V
   Species          Molality    Activity  Molality  Activity     Gamma    cm³/mol

   OH-             1.020e-04   1.005e-04    -3.991    -3.998    -0.007     (0)  
   H+              1.015e-10   1.000e-10    -9.994   -10.000    -0.006      0.00
   H2O             5.551e+01   1.000e+00     1.744    -0.000     0.000     18.07
Cl            7.063e-05
   Cl-             7.063e-05   6.957e-05    -4.151    -4.158    -0.007     (0)  
   FeCl+2          1.030e-37   9.698e-38   -36.987   -37.013    -0.026     (0)  
   FeCl2+          0.000e+00   0.000e+00   -40.514   -40.521    -0.007     (0)  
   FeCl3           0.000e+00   0.000e+00   -45.679   -45.679     0.000     (0)  
Fe(2)         4.499e-12
   FeOH+           3.110e-12   3.064e-12   -11.507   -11.514    -0.007     (0)  
   Fe+2            1.029e-12   9.689e-13   -11.988   -12.014    -0.026     (0)  
   Fe(OH)2         2.608e-13   2.608e-13   -12.584   -12.584     0.000     (0)  
   Fe(OH)3-        9.836e-14   9.689e-14   -13.007   -13.014    -0.007     (0)  
   FeSO4           0.000e+00   0.000e+00   -60.354   -60.354     0.000     (0)  
   Fe(HS)2         0.000e+00   0.000e+00   -68.283   -68.283     0.000     (0)  
   Fe(HS)3-        0.000e+00   0.000e+00   -98.850   -98.856    -0.007     (0)  
Fe(3)         1.189e-16
   Fe(OH)4-        1.177e-16   1.159e-16   -15.929   -15.936    -0.007     (0)  
   Fe(OH)3         1.159e-18   1.159e-18   -17.936   -17.936     0.000     (0)  
   Fe(OH)2+        1.002e-20   9.869e-21   -19.999   -20.006    -0.007     (0)  
   FeOH+2          3.166e-27   2.980e-27   -26.499   -26.526    -0.026     (0)  
   Fe+3            5.276e-35   4.616e-35   -34.278   -34.336    -0.058     (0)  
   FeCl+2          1.030e-37   9.698e-38   -36.987   -37.013    -0.026     (0)  
   FeCl2+          0.000e+00   0.000e+00   -40.514   -40.521    -0.007     (0)  
   FeCl3           0.000e+00   0.000e+00   -45.679   -45.679     0.000     (0)  
   Fe2(OH)2+4      0.000e+00   0.000e+00   -51.516   -51.621    -0.105     (0)  
   Fe3(OH)4+5      0.000e+00   0.000e+00   -69.143   -69.307    -0.165     (0)  
   FeSO4+          0.000e+00   0.000e+00   -80.999   -81.006    -0.007     (0)  
   Fe(SO4)2-       0.000e+00   0.000e+00  -130.089  -130.095    -0.007     (0)  
H(0)          5.383e-05
   H2              2.691e-05   2.692e-05    -4.570    -4.570     0.000     (0)  
N(-3)         1.500e-04
   NH3             1.273e-04   1.273e-04    -3.895    -3.895     0.000     (0)  
   NH4+            2.268e-05   2.234e-05    -4.644    -4.651    -0.007     (0)  
   NH4SO4-         0.000e+00   0.000e+00   -54.124   -54.131    -0.007     (0)  
N(3)          0.000e+00
   NO2-            0.000e+00   0.000e+00   -70.891   -70.898    -0.007     (0)  
N(5)          0.000e+00
   NO3-            0.000e+00   0.000e+00   -98.041   -98.048    -0.007     (0)  
Na            1.500e-04
   Na+             1.500e-04   1.477e-04    -3.824    -3.831    -0.007     (0)  
   NaSO4-          0.000e+00   0.000e+00   -53.714   -53.720    -0.007     (0)  
O(0)          0.000e+00
   O2              0.000e+00   0.000e+00   -83.240   -83.240     0.000     (0)  
S(-2)         1.350e-11
   S6-2            2.249e-12   2.117e-12   -11.648   -11.674    -0.026     (0)  
   S5-2            4.341e-17   4.085e-17   -16.362   -16.389    -0.026     (0)  
   S4-2            1.390e-21   1.308e-21   -20.857   -20.883    -0.026     (0)  
   S3-2            2.682e-26   2.524e-26   -25.572   -25.598    -0.026     (0)  
   HS-             2.493e-33   2.456e-33   -32.603   -32.610    -0.007     (0)  
   S-2             3.151e-36   2.966e-36   -35.502   -35.528    -0.026     (0)  
   H2S             2.147e-36   2.147e-36   -35.668   -35.668     0.000     (0)  
   Fe(HS)2         0.000e+00   0.000e+00   -68.283   -68.283     0.000     (0)  
   Fe(HS)3-        0.000e+00   0.000e+00   -98.850   -98.856    -0.007     (0)  
S(6)          0.000e+00
   SO4-2           0.000e+00   0.000e+00   -50.563   -50.590    -0.026     (0)  
   NaSO4-          0.000e+00   0.000e+00   -53.714   -53.720    -0.007     (0)  
   NH4SO4-         0.000e+00   0.000e+00   -54.124   -54.131    -0.007     (0)  
   HSO4-           0.000e+00   0.000e+00   -58.596   -58.603    -0.007     (0)  
   FeSO4           0.000e+00   0.000e+00   -60.354   -60.354     0.000     (0)  
   FeSO4+          0.000e+00   0.000e+00   -80.999   -81.006    -0.007     (0)  
   Fe(SO4)2-       0.000e+00   0.000e+00  -130.089  -130.095    -0.007     (0)  

------------------------------Saturation indices-------------------------------

  Phase               SI** log IAP   log K(298 K,   1 atm)

  Fe(OH)2.7Cl0.3   -5.54     -8.58   -3.04  Fe(OH)2.7Cl0.3
  Fe2(SO4)3      -224.02   -220.44    3.58  Fe2(SO4)3
  Fe3(OH)8        -20.91     -0.69   20.22  Fe3(OH)8
  Ferrihydrite     -9.23     -4.34    4.89  Fe(OH)3
  FeS(ppt)        -30.71    -34.62   -3.92  FeS
  Goethite         -4.84     -4.34    0.50  FeOOH
  Greigite        -86.02   -145.06  -59.04  Fe3S4
  Halite           -9.57     -7.99    1.58  NaCl
  Hematite         -4.66     -8.67   -4.01  Fe2O3
  Jarosite-H     -142.09   -154.19  -12.10  (H3O)Fe3(SO4)2(OH)6
  Jarosite-Na    -136.82   -148.02  -11.20  NaFe3(SO4)2(OH)6
  Lepidocrocite    -5.71     -4.34    1.37  FeOOH
  Mackinawite     -32.49    -34.62   -2.14  FeS
  Maghemite       -15.06     -8.67    6.39  Fe2O3
  Magnetite        -4.42     -0.69    3.74  Fe3O4
  Melanterite     -60.13    -62.60   -2.47  FeSO4:7H2O
  Mirabilite      -57.14    -58.25   -1.11  Na2SO4:10H2O
  NaCl             12.01     -7.99  -20.00  NaCl
  NaNO3           -81.88   -101.88  -20.00  NaNO3
  O2(g)           -80.28      2.84   83.12  O2
  pe_fix            9.29      9.29    0.00  e-
  pH_fix          -10.00    -10.00    0.00  H+
  Pyrite          -15.53    -75.81  -60.28  FeS2
  Pyrrhotite      -31.38    -34.62   -3.25  FeS
  Sulfur          -39.08    -54.11  -15.03  S
  Thenardite      -58.07    -58.25   -0.18  Na2SO4

**For a gas, SI = log10(fugacity). Fugacity = pressure * phi / 1 atm.
  For ideal gases, phi = 1.

Reaction step 7.

Using solution 1.	PURE WATER
Using pure phase assemblage 1.	
Using reaction 1.	

Reaction 1.	

	  1.000e-12 moles of the following reaction have been added:

	                 Relative
	Reactant            moles

	Fe1S3                1.00000

	                 Relative
	Element             moles
	Fe                   1.00000
	S                    3.00000

-------------------------------Phase assemblage--------------------------------

                                                      Moles in assemblage
Phase               SI  log IAP  log K(T, P)   Initial       Final       Delta

Greigite          6.72     0.00     -6.72    0.000e+00           0   0.000e+00
Mackinawite     -32.41   -34.55     -2.14    0.000e+00           0   0.000e+00
NaNO3           -81.88  -101.88    -20.00    0.000e+00           0   0.000e+00
Pyrite           10.07     0.00    -10.07    0.000e+00           0   0.000e+00
Pyrrhotite      -31.30   -34.55     -3.25    0.000e+00           0   0.000e+00
pH_fix          -10.00   -10.00      0.00
	 HCl                is reactant       1.000e+01   1.000e+01  -1.208e-13
pe_fix            9.29     9.29      0.00
	 O2                 is reactant       7.382e-01   7.382e-01  -2.458e-13

-----------------------------Solution composition------------------------------

	Elements           Molality       Moles

	Cl                7.063e-05   9.421e-05
	Fe                5.248e-12   7.000e-12
	N                 1.500e-04   2.000e-04
	Na                1.500e-04   2.000e-04
	S                 1.575e-11   2.100e-11

----------------------------Description of solution----------------------------

                                       pH  =  10.000      Charge balance
                                       pe  =  -9.290      Adjusted to redox equilibrium
                        Activity of water  =   1.000
                 Ionic strength (mol/kgw)  =   1.726e-04
                       Mass of water (kg)  =   1.334e+00
                 Total alkalinity (eq/kg)  =   2.293e-04
                         Temperature (°C)  =  25.00
                  Electrical balance (eq)  =  -2.408e-15
 Percent error, 100*(Cat-|An|)/(Cat+|An|)  =  -0.00
                               Iterations  =   3
                                  Total H  = 1.480614e+02
                                  Total O  = 7.403040e+01

----------------------------Distribution of species----------------------------

                                               Log       Log       Log    mole V
   Species          Molality    Activity  Molality  Activity     Gamma    cm³/mol

   OH-             1.020e-04   1.005e-04    -3.991    -3.998    -0.007     (0)  
   H+              1.015e-10   1.000e-10    -9.994   -10.000    -0.006      0.00
   H2O             5.551e+01   1.000e+00     1.744    -0.000     0.000     18.07
Cl            7.063e-05
   Cl-             7.063e-05   6.957e-05    -4.151    -4.158    -0.007     (0)  
   FeCl+2          1.202e-37   1.131e-37   -36.920   -36.946    -0.026     (0)  
   FeCl2+          0.000e+00   0.000e+00   -40.447   -40.454    -0.007     (0)  
   FeCl3           0.000e+00   0.000e+00   -45.612   -45.612     0.000     (0)  
Fe(2)         5.248e-12
   FeOH+           3.629e-12   3.574e-12   -11.440   -11.447    -0.007     (0)  
   Fe+2            1.200e-12   1.130e-12   -11.921   -11.947    -0.026     (0)  
   Fe(OH)2         3.042e-13   3.042e-13   -12.517   -12.517     0.000     (0)  
   Fe(OH)3-        1.148e-13   1.130e-13   -12.940   -12.947    -0.007     (0)  
   FeSO4           0.000e+00   0.000e+00   -60.275   -60.275     0.000     (0)  
   Fe(HS)2         0.000e+00   0.000e+00   -68.194   -68.194     0.000     (0)  
   Fe(HS)3-        0.000e+00   0.000e+00   -98.749   -98.756    -0.007     (0)  
Fe(3)         1.387e-16
   Fe(OH)4-        1.373e-16   1.353e-16   -15.862   -15.869    -0.007     (0)  
   Fe(OH)3         1.353e-18   1.353e-18   -17.869   -17.869     0.000     (0)  
   Fe(OH)2+        1.169e-20   1.151e-20   -19.932   -19.939    -0.007     (0)  
   FeOH+2          3.694e-27   3.477e-27   -26.433   -26.459    -0.026     (0)  
   Fe+3            6.156e-35   5.385e-35   -34.211   -34.269    -0.058     (0)  
   FeCl+2          1.202e-37   1.131e-37   -36.920   -36.946    -0.026     (0)  
   FeCl2+          0.000e+00   0.000e+00   -40.447   -40.454    -0.007     (0)  
   FeCl3           0.000e+00   0.000e+00   -45.612   -45.612     0.000     (0)  
   Fe2(OH)2+4      0.000e+00   0.000e+00   -51.382   -51.488    -0.105     (0)  
   Fe3(OH)4+5      0.000e+00   0.000e+00   -68.942   -69.106    -0.165     (0)  
   FeSO4+          0.000e+00   0.000e+00   -80.921   -80.927    -0.007     (0)  
   Fe(SO4)2-       0.000e+00   0.000e+00  -130.000  -130.006    -0.007     (0)  
H(0)          5.383e-05
   H2              2.691e-05   2.692e-05    -4.570    -4.570     0.000     (0)  
N(-3)         1.500e-04
   NH3             1.273e-04   1.273e-04    -3.895    -3.895     0.000     (0)  
   NH4+            2.268e-05   2.234e-05    -4.644    -4.651    -0.007     (0)  
   NH4SO4-         0.000e+00   0.000e+00   -54.113   -54.120    -0.007     (0)  
N(3)          0.000e+00
   NO2-            0.000e+00   0.000e+00   -70.891   -70.898    -0.007     (0)  
N(5)          0.000e+00
   NO3-            0.000e+00   0.000e+00   -98.041   -98.048    -0.007     (0)  
Na            1.500e-04
   Na+             1.500e-04   1.477e-04    -3.824    -3.831    -0.007     (0)  
   NaSO4-          0.000e+00   0.000e+00   -53.703   -53.709    -0.007     (0)  
O(0)          0.000e+00
   O2              0.000e+00   0.000e+00   -83.240   -83.240     0.000     (0)  
S(-2)         1.575e-11
   S6-2            2.624e-12   2.470e-12   -11.581   -11.607    -0.026     (0)  
   S5-2            4.936e-17   4.645e-17   -16.307   -16.333    -0.026     (0)  
   S4-2            1.540e-21   1.450e-21   -20.812   -20.839    -0.026     (0)  
   S3-2            2.897e-26   2.726e-26   -25.538   -25.564    -0.026     (0)  
   HS-             2.558e-33   2.520e-33   -32.592   -32.599    -0.007     (0)  
   S-2             3.233e-36   3.043e-36   -35.490   -35.517    -0.026     (0)  
   H2S             2.203e-36   2.203e-36   -35.657   -35.657     0.000     (0)  
   Fe(HS)2         0.000e+00   0.000e+00   -68.194   -68.194     0.000     (0)  
   Fe(HS)3-        0.000e+00   0.000e+00   -98.749   -98.756    -0.007     (0)  
S(6)          0.000e+00
   SO4-2           0.000e+00   0.000e+00   -50.552   -50.579    -0.026     (0)  
   NaSO4-          0.000e+00   0.000e+00   -53.703   -53.709    -0.007     (0)  
   NH4SO4-         0.000e+00   0.000e+00   -54.113   -54.120    -0.007     (0)  
   HSO4-           0.000e+00   0.000e+00   -58.585   -58.592    -0.007     (0)  
   FeSO4           0.000e+00   0.000e+00   -60.275   -60.275     0.000     (0)  
   FeSO4+          0.000e+00   0.000e+00   -80.921   -80.927    -0.007     (0)  
   Fe(SO4)2-       0.000e+00   0.000e+00  -130.000  -130.006    -0.007     (0)  

------------------------------Saturation indices-------------------------------

  Phase               SI** log IAP   log K(298 K,   1 atm)

  Fe(OH)2.7Cl0.3   -5.48     -8.52   -3.04  Fe(OH)2.7Cl0.3
  Fe2(SO4)3      -223.85   -220.27    3.58  Fe2(SO4)3
  Fe3(OH)8        -20.71     -0.48   20.22  Fe3(OH)8
  Ferrihydrite     -9.16     -4.27    4.89  Fe(OH)3
  FeS(ppt)        -30.63    -34.55   -3.92  FeS
  Goethite         -4.77     -4.27    0.50  FeOOH
  Greigite        -85.78   -144.81  -59.04  Fe3S4
  Halite           -9.57     -7.99    1.58  NaCl
  Hematite         -4.53     -8.54   -4.01  Fe2O3
  Jarosite-H     -141.86   -153.96  -12.10  (H3O)Fe3(SO4)2(OH)6
  Jarosite-Na    -136.59   -147.79  -11.20  NaFe3(SO4)2(OH)6
  Lepidocrocite    -5.64     -4.27    1.37  FeOOH
  Mackinawite     -32.41    -34.55   -2.14  FeS
  Maghemite       -14.92     -8.54    6.39  Fe2O3
  Magnetite        -4.22     -0.48    3.74  Fe3O4
  Melanterite     -60.06    -62.53   -2.47  FeSO4:7H2O
  Mirabilite      -57.13    -58.24   -1.11  Na2SO4:10H2O
  NaCl             12.01     -7.99  -20.00  NaCl
  NaNO3           -81.88   -101.88  -20.00  NaNO3
  O2(g)           -80.28      2.84   83.12  O2
  pe_fix            9.29      9.29    0.00  e-
  pH_fix          -10.00    -10.00    0.00  H+
  Pyrite          -15.44    -75.72  -60.28  FeS2
  Pyrrhotite      -31.30    -34.55   -3.25  FeS
  Sulfur          -39.07    -54.10  -15.03  S
  Thenardite      -58.06    -58.24   -0.18  Na2SO4

**For a gas, SI = log10(fugacity). Fugacity = pressure * phi / 1 atm.
  For ideal gases, phi = 1.

Reaction step 8.

Using solution 1.	PURE WATER
Using pure phase assemblage 1.	
Using reaction 1.	

Reaction 1.	

	  1.000e-12 moles of the following reaction have been added:

	                 Relative
	Reactant            moles

	Fe1S3                1.00000

	                 Relative
	Element             moles
	Fe                   1.00000
	S                    3.00000

-------------------------------Phase assemblage--------------------------------

                                                      Moles in assemblage
Phase               SI  log IAP  log K(T, P)   Initial       Final       Delta

Greigite          6.72     0.00     -6.72    0.000e+00           0   0.000e+00
Mackinawite     -32.34   -34.48     -2.14    0.000e+00           0   0.000e+00
NaNO3           -81.88  -101.88    -20.00    0.000e+00           0   0.000e+00
Pyrite           10.07     0.00    -10.07    0.000e+00           0   0.000e+00
Pyrrhotite      -31.23   -34.48     -3.25    0.000e+00           0   0.000e+00
pH_fix          -10.00   -10.00      0.00
	 HCl                is reactant       1.000e+01   1.000e+01  -1.208e-13
pe_fix            9.29     9.29      0.00
	 O2                 is reactant       7.382e-01   7.382e-01  -2.455e-13

-----------------------------Solution composition------------------------------

	Elements           Molality       Moles

	Cl                7.063e-05   9.421e-05
	Fe                5.998e-12   8.000e-12
	N                 1.500e-04   2.000e-04
	Na                1.500e-04   2.000e-04
	S                 1.799e-11   2.400e-11

----------------------------Description of solution----------------------------

                                       pH  =  10.000      Charge balance
                                       pe  =  -9.290      Adjusted to redox equilibrium
                        Activity of water  =   1.000
                 Ionic strength (mol/kgw)  =   1.726e-04
                       Mass of water (kg)  =   1.334e+00
                 Total alkalinity (eq/kg)  =   2.293e-04
                         Temperature (°C)  =  25.00
                  Electrical balance (eq)  =  -2.408e-15
 Percent error, 100*(Cat-|An|)/(Cat+|An|)  =  -0.00
                               Iterations  =   3
                                  Total H  = 1.480614e+02
                                  Total O  = 7.403040e+01

----------------------------Distribution of species----------------------------

                                               Log       Log       Log    mole V
   Species          Molality    Activity  Molality  Activity     Gamma    cm³/mol

   OH-             1.020e-04   1.005e-04    -3.991    -3.998    -0.007     (0)  
   H+              1.015e-10   1.000e-10    -9.994   -10.000    -0.006      0.00
   H2O             5.551e+01   1.000e+00     1.744    -0.000     0.000     18.07
Cl            7.063e-05
   Cl-             7.063e-05   6.957e-05    -4.151    -4.158    -0.007     (0)  
   FeCl+2          1.374e-37   1.293e-37   -36.862   -36.888    -0.026     (0)  
   FeCl2+          0.000e+00   0.000e+00   -40.389   -40.396    -0.007     (0)  
   FeCl3           0.000e+00   0.000e+00   -45.554   -45.554     0.000     (0)  
Fe(2)         5.998e-12
   FeOH+           4.147e-12   4.085e-12   -11.382   -11.389    -0.007     (0)  
   Fe+2            1.372e-12   1.292e-12   -11.863   -11.889    -0.026     (0)  
   Fe(OH)2         3.477e-13   3.477e-13   -12.459   -12.459     0.000     (0)  
   Fe(OH)3-        1.311e-13   1.292e-13   -12.882   -12.889    -0.007     (0)  
   FeSO4           0.000e+00   0.000e+00   -60.208   -60.208     0.000     (0)  
   Fe(HS)2         0.000e+00   0.000e+00   -68.117   -68.117     0.000     (0)  
   Fe(HS)3-        0.000e+00   0.000e+00   -98.662   -98.669    -0.007     (0)  
Fe(3)         1.585e-16
   Fe(OH)4-        1.569e-16   1.546e-16   -15.804   -15.811    -0.007     (0)  
   Fe(OH)3         1.546e-18   1.546e-18   -17.811   -17.811     0.000     (0)  
   Fe(OH)2+        1.336e-20   1.316e-20   -19.874   -19.881    -0.007     (0)  
   FeOH+2          4.221e-27   3.974e-27   -26.375   -26.401    -0.026     (0)  
   Fe+3            7.035e-35   6.155e-35   -34.153   -34.211    -0.058     (0)  
   FeCl+2          1.374e-37   1.293e-37   -36.862   -36.888    -0.026     (0)  
   FeCl2+          0.000e+00   0.000e+00   -40.389   -40.396    -0.007     (0)  
   FeCl3           0.000e+00   0.000e+00   -45.554   -45.554     0.000     (0)  
   Fe2(OH)2+4      0.000e+00   0.000e+00   -51.266   -51.372    -0.105     (0)  
   Fe3(OH)4+5      0.000e+00   0.000e+00   -68.768   -68.932    -0.165     (0)  
   FeSO4+          0.000e+00   0.000e+00   -80.853   -80.860    -0.007     (0)  
   Fe(SO4)2-       0.000e+00   0.000e+00  -129.922  -129.929    -0.007     (0)  
H(0)          5.383e-05
   H2              2.691e-05   2.692e-05    -4.570    -4.570     0.000     (0)  
N(-3)         1.500e-04
   NH3             1.273e-04   1.273e-04    -3.895    -3.895     0.000     (0)  
   NH4+            2.268e-05   2.234e-05    -4.644    -4.651    -0.007     (0)  
   NH4SO4-         0.000e+00   0.000e+00   -54.103   -54.110    -0.007     (0)  
N(3)          0.000e+00
   NO2-            0.000e+00   0.000e+00   -70.891   -70.898    -0.007     (0)  
N(5)          0.000e+00
   NO3-            0.000e+00   0.000e+00   -98.041   -98.048    -0.007     (0)  
Na            1.500e-04
   Na+             1.500e-04   1.477e-04    -3.824    -3.831    -0.007     (0)  
   NaSO4-          0.000e+00   0.000e+00   -53.693   -53.700    -0.007     (0)  
O(0)          0.000e+00
   O2              0.000e+00   0.000e+00   -83.240   -83.240     0.000     (0)  
S(-2)         1.799e-11
   S6-2            2.999e-12   2.823e-12   -11.523   -11.549    -0.026     (0)  
   S5-2            5.516e-17   5.192e-17   -16.258   -16.285    -0.026     (0)  
   S4-2            1.684e-21   1.584e-21   -20.774   -20.800    -0.026     (0)  
   S3-2            3.097e-26   2.915e-26   -25.509   -25.535    -0.026     (0)  
   HS-             2.616e-33   2.576e-33   -32.582   -32.589    -0.007     (0)  
   S-2             3.306e-36   3.112e-36   -35.481   -35.507    -0.026     (0)  
   H2S             2.253e-36   2.253e-36   -35.647   -35.647     0.000     (0)  
   Fe(HS)2         0.000e+00   0.000e+00   -68.117   -68.117     0.000     (0)  
   Fe(HS)3-        0.000e+00   0.000e+00   -98.662   -98.669    -0.007     (0)  
S(6)          0.000e+00
   SO4-2           0.000e+00   0.000e+00   -50.543   -50.569    -0.026     (0)  
   NaSO4-          0.000e+00   0.000e+00   -53.693   -53.700    -0.007     (0)  
   NH4SO4-         0.000e+00   0.000e+00   -54.103   -54.110    -0.007     (0)  
   HSO4-           0.000e+00   0.000e+00   -58.575   -58.582    -0.007     (0)  
   FeSO4           0.000e+00   0.000e+00   -60.208   -60.208     0.000     (0)  
   FeSO4+          0.000e+00   0.000e+00   -80.853   -80.860    -0.007     (0)  
   Fe(SO4)2-       0.000e+00   0.000e+00  -129.922  -129.929    -0.007     (0)  

------------------------------Saturation indices-------------------------------

  Phase               SI** log IAP   log K(298 K,   1 atm)

  Fe(OH)2.7Cl0.3   -5.42     -8.46   -3.04  Fe(OH)2.7Cl0.3
  Fe2(SO4)3      -223.71   -220.13    3.58  Fe2(SO4)3
  Fe3(OH)8        -20.53     -0.31   20.22  Fe3(OH)8
  Ferrihydrite     -9.10     -4.21    4.89  Fe(OH)3
  FeS(ppt)        -30.56    -34.48   -3.92  FeS
  Goethite         -4.71     -4.21    0.50  FeOOH
  Greigite        -85.57   -144.60  -59.04  Fe3S4
  Halite           -9.57     -7.99    1.58  NaCl
  Hematite         -4.41     -8.42   -4.01  Fe2O3
  Jarosite-H     -141.67   -153.77  -12.10  (H3O)Fe3(SO4)2(OH)6
  Jarosite-Na    -136.40   -147.60  -11.20  NaFe3(SO4)2(OH)6
  Lepidocrocite    -5.58     -4.21    1.37  FeOOH
  Mackinawite     -32.34    -34.48   -2.14  FeS
  Maghemite       -14.81     -8.42    6.39  Fe2O3
  Magnetite        -4.05     -0.31    3.74  Fe3O4
  Melanterite     -59.99    -62.46   -2.47  FeSO4:7H2O
  Mirabilite      -57.12    -58.23   -1.11  Na2SO4:10H2O
  NaCl             12.01     -7.99  -20.00  NaCl
  NaNO3           -81.88   -101.88  -20.00  NaNO3
  O2(g)           -80.28      2.84   83.12  O2
  pe_fix            9.29      9.29    0.00  e-
  pH_fix          -10.00    -10.00    0.00  H+
  Pyrite          -15.36    -75.65  -60.28  FeS2
  Pyrrhotite      -31.23    -34.48   -3.25  FeS
  Sulfur          -39.06    -54.09  -15.03  S
  Thenardite      -58.05    -58.23   -0.18  Na2SO4

**For a gas, SI = log10(fugacity). Fugacity = pressure * phi / 1 atm.
  For ideal gases, phi = 1.

Reaction step 9.

Using solution 1.	PURE WATER
Using pure phase assemblage 1.	
Using reaction 1.	

Reaction 1.	

	  1.000e-12 moles of the following reaction have been added:

	                 Relative
	Reactant            moles

	Fe1S3                1.00000

	                 Relative
	Element             moles
	Fe                   1.00000
	S                    3.00000

-------------------------------Phase assemblage--------------------------------

                                                      Moles in assemblage
Phase               SI  log IAP  log K(T, P)   Initial       Final       Delta

Greigite          6.72     0.00     -6.72    0.000e+00           0   0.000e+00
Mackinawite     -32.28   -34.42     -2.14    0.000e+00           0   0.000e+00
NaNO3           -81.88  -101.88    -20.00    0.000e+00           0   0.000e+00
Pyrite           10.07     0.00    -10.07    0.000e+00           0   0.000e+00
Pyrrhotite      -31.17   -34.42     -3.25    0.000e+00           0   0.000e+00
pH_fix          -10.00   -10.00      0.00
	 HCl                is reactant       1.000e+01   1.000e+01  -1.208e-13
pe_fix            9.29     9.29      0.00
	 O2                 is reactant       7.382e-01   7.382e-01  -2.593e-13

-----------------------------Solution composition------------------------------

	Elements           Molality       Moles

	Cl                7.063e-05   9.421e-05
	Fe                6.748e-12   9.000e-12
	N                 1.500e-04   2.000e-04
	Na                1.500e-04   2.000e-04
	S                 2.024e-11   2.700e-11

----------------------------Description of solution----------------------------

                                       pH  =  10.000      Charge balance
                                       pe  =  -9.290      Adjusted to redox equilibrium
                        Activity of water  =   1.000
                 Ionic strength (mol/kgw)  =   1.726e-04
                       Mass of water (kg)  =   1.334e+00
                 Total alkalinity (eq/kg)  =   2.293e-04
                         Temperature (°C)  =  25.00
                  Electrical balance (eq)  =  -2.408e-15
 Percent error, 100*(Cat-|An|)/(Cat+|An|)  =  -0.00
                               Iterations  =   3
                                  Total H  = 1.480614e+02
                                  Total O  = 7.403040e+01

----------------------------Distribution of species----------------------------

                                               Log       Log       Log    mole V
   Species          Molality    Activity  Molality  Activity     Gamma    cm³/mol

   OH-             1.020e-04   1.005e-04    -3.991    -3.998    -0.007     (0)  
   H+              1.015e-10   1.000e-10    -9.994   -10.000    -0.006      0.00
   H2O             5.551e+01   1.000e+00     1.744    -0.000     0.000     18.07
Cl            7.063e-05
   Cl-             7.063e-05   6.957e-05    -4.151    -4.158    -0.007     (0)  
   FeCl+2          1.545e-37   1.455e-37   -36.811   -36.837    -0.026     (0)  
   FeCl2+          0.000e+00   0.000e+00   -40.338   -40.345    -0.007     (0)  
   FeCl3           0.000e+00   0.000e+00   -45.502   -45.502     0.000     (0)  
Fe(2)         6.748e-12
   FeOH+           4.666e-12   4.596e-12   -11.331   -11.338    -0.007     (0)  
   Fe+2            1.543e-12   1.453e-12   -11.812   -11.838    -0.026     (0)  
   Fe(OH)2         3.911e-13   3.912e-13   -12.408   -12.408     0.000     (0)  
[...]
S(6)          0.000e+00
   SO4-2           0.000e+00   0.000e+00   -48.361   -49.073    -0.712     (0)  
   FeSO4           0.000e+00   0.000e+00   -48.484   -48.446     0.038     (0)  
   NaSO4-          0.000e+00   0.000e+00   -52.192   -52.343    -0.151     (0)  
   NH4SO4-         0.000e+00   0.000e+00   -52.466   -52.622    -0.157     (0)  
   HSO4-           0.000e+00   0.000e+00   -56.921   -57.086    -0.165     (0)  
   FeSO4+          0.000e+00   0.000e+00   -68.941   -69.098    -0.157     (0)  
   Fe(SO4)2-       0.000e+00   0.000e+00  -116.535  -116.671    -0.136     (0)  

------------------------------Saturation indices-------------------------------

  Phase               SI** log IAP   log K(298 K,   1 atm)

  Fe(OH)2.7Cl0.3    5.85      2.81   -3.04  Fe(OH)2.7Cl0.3
  Fe2(SO4)3      -198.69   -195.11    3.58  Fe2(SO4)3
  Fe3(OH)8         10.24     30.46   20.22  Fe3(OH)8
  Ferrihydrite      1.15      6.04    4.89  Fe(OH)3
  FeS(ppt)        -18.79    -22.70   -3.92  FeS
  Goethite          5.55      6.05    0.50  FeOOH
  Greigite        -48.73   -107.76  -59.04  Fe3S4
  Halite           -6.33     -4.75    1.58  NaCl
  Hematite         16.11     12.10   -4.01  Fe2O3
  Jarosite-H     -107.91   -120.01  -12.10  (H3O)Fe3(SO4)2(OH)6
  Jarosite-Na    -102.77   -113.97  -11.20  NaFe3(SO4)2(OH)6
  Lepidocrocite     4.68      6.05    1.37  FeOOH
  Mackinawite     -20.56    -22.70   -2.14  FeS
  Maghemite         5.71     12.10    6.39  Fe2O3
  Magnetite        26.74     30.47    3.74  Fe3O4
  Melanterite     -48.25    -50.72   -2.47  FeSO4:7H2O
  Mirabilite      -55.93    -57.05   -1.11  Na2SO4:10H2O
  NaCl             15.25     -4.75  -20.00  NaCl
  NaNO3           -82.04   -102.04  -20.00  NaNO3
  O2(g)           -80.29      2.83   83.12  O2
  pe_fix            9.29      9.29    0.00  e-
  pH_fix          -10.00    -10.00    0.00  H+
  Pyrite           -2.08    -62.36  -60.28  FeS2
  Pyrrhotite      -19.46    -22.70   -3.25  FeS
  Sulfur          -37.55    -52.58  -15.03  S
  Thenardite      -56.83    -57.01   -0.18  Na2SO4

**For a gas, SI = log10(fugacity). Fugacity = pressure * phi / 1 atm.
  For ideal gases, phi = 1.

Reaction step 109.

Using solution 1.	PURE WATER
Using pure phase assemblage 1.	
Using reaction 1.	

Reaction 1.	

	  1.000e-02 moles of the following reaction have been added:

	                 Relative
	Reactant            moles

	Fe3S1                1.00000

	                 Relative
	Element             moles
	Fe                   3.00000
	S                    1.00000

-------------------------------Phase assemblage--------------------------------

                                                      Moles in assemblage
Phase               SI  log IAP  log K(T, P)   Initial       Final       Delta

Greigite          6.72     0.00     -6.72    0.000e+00           0   0.000e+00
Mackinawite     -20.52   -22.66     -2.14    0.000e+00           0   0.000e+00
NaNO3           -82.04  -102.04    -20.00    0.000e+00           0   0.000e+00
Pyrite           10.07     0.00    -10.07    0.000e+00           0   0.000e+00
Pyrrhotite      -19.41   -22.66     -3.25    0.000e+00           0   0.000e+00
pH_fix          -10.00   -10.00      0.00
	 HCl                is reactant       9.656e+00   9.616e+00  -4.001e-02
pe_fix            9.29     9.29      0.00
	 O2                 is reactant       6.091e-01   5.950e-01  -1.417e-02

-----------------------------Solution composition------------------------------

	Elements           Molality       Moles

	Cl                2.878e-01   3.844e-01
	Fe                2.271e-01   3.033e-01
	N                 1.498e-04   2.000e-04
	Na                1.498e-04   2.000e-04
	S                 7.571e-02   1.011e-01

----------------------------Description of solution----------------------------

                                       pH  =  10.000      Charge balance
                                       pe  =  -9.290      Adjusted to redox equilibrium
                        Activity of water  =   0.991
                 Ionic strength (mol/kgw)  =   4.289e-01
                       Mass of water (kg)  =   1.335e+00
                 Total alkalinity (eq/kg)  =   2.929e-01
                         Temperature (°C)  =  25.00
                  Electrical balance (eq)  =  -2.185e-09
 Percent error, 100*(Cat-|An|)/(Cat+|An|)  =  -0.00
                               Iterations  =   3
                                  Total H  = 1.484456e+02
                                  Total O  = 7.431688e+01

----------------------------Distribution of species----------------------------

                                               Log       Log       Log    mole V
   Species          Molality    Activity  Molality  Activity     Gamma    cm³/mol

   OH-             1.544e-04   9.956e-05    -3.811    -4.002    -0.191     (0)  
   H+              1.299e-10   1.000e-10    -9.886   -10.000    -0.114      0.00
   H2O             5.551e+01   9.910e-01     1.744    -0.004     0.000     18.07
Cl            2.878e-01
   Cl-             2.878e-01   1.830e-01    -0.541    -0.737    -0.197     (0)  
   FeCl+2          3.009e-23   6.836e-24   -22.522   -23.165    -0.644     (0)  
   FeCl2+          8.095e-24   5.589e-24   -23.092   -23.253    -0.161     (0)  
   FeCl3           9.267e-26   1.023e-25   -25.033   -24.990     0.043     (0)  
Fe(2)         2.271e-01
   FeOH+           1.178e-01   8.135e-02    -0.929    -1.090    -0.161     (0)  
   Fe+2            9.942e-02   2.596e-02    -1.003    -1.586    -0.583     (0)  
   Fe(OH)2         6.216e-03   6.861e-03    -2.206    -2.164     0.043     (0)  
   Fe(OH)3-        3.660e-03   2.526e-03    -2.437    -2.598    -0.161     (0)  
   FeSO4           0.000e+00   0.000e+00   -48.446   -48.403     0.043     (0)  
   Fe(HS)2         0.000e+00   0.000e+00   -54.821   -54.779     0.043     (0)  
   Fe(HS)3-        0.000e+00   0.000e+00   -83.677   -83.813    -0.136     (0)  
Fe(3)         4.304e-06
   Fe(OH)4-        4.277e-06   2.996e-06    -5.369    -5.523    -0.155     (0)  
   Fe(OH)3         2.739e-08   3.023e-08    -7.562    -7.520     0.043     (0)  
   Fe(OH)2+        3.706e-10   2.597e-10    -9.431    -9.586    -0.155     (0)  
   FeOH+2          3.484e-16   7.913e-17   -15.458   -16.102    -0.644     (0)  
   FeCl+2          3.009e-23   6.836e-24   -22.522   -23.165    -0.644     (0)  
   Fe+3            1.306e-23   1.237e-24   -22.884   -23.908    -1.024     (0)  
   FeCl2+          8.095e-24   5.589e-24   -23.092   -23.253    -0.161     (0)  
   FeCl3           9.267e-26   1.023e-25   -25.033   -24.990     0.043     (0)  
   Fe2(OH)2+4      2.547e-29   1.685e-31   -28.594   -30.773    -2.179     (0)  
   Fe3(OH)4+5      2.325e-35   9.143e-39   -34.634   -38.039    -3.405     (0)  
   FeSO4+          0.000e+00   0.000e+00   -68.894   -69.055    -0.161     (0)  
   Fe(SO4)2-       0.000e+00   0.000e+00  -116.486  -116.622    -0.136     (0)  
H(0)          4.877e-05
   H2              2.438e-05   2.692e-05    -4.613    -4.570     0.043     (0)  
N(-3)         1.498e-04
   NH3             1.135e-04   1.253e-04    -3.945    -3.902     0.043     (0)  
   NH4+            3.625e-05   2.199e-05    -4.441    -4.658    -0.217     (0)  
   NH4SO4-         0.000e+00   0.000e+00   -52.454   -52.615    -0.161     (0)  
N(3)          0.000e+00
   NO2-            0.000e+00   0.000e+00   -70.776   -70.913    -0.136     (0)  
N(5)          0.000e+00
   NO3-            0.000e+00   0.000e+00   -97.864   -98.067    -0.203     (0)  
Na            1.498e-04
   Na+             1.498e-04   1.067e-04    -3.825    -3.972    -0.147     (0)  
   NaSO4-          0.000e+00   0.000e+00   -52.185   -52.339    -0.155     (0)  
O(0)          0.000e+00
   O2              0.000e+00   0.000e+00   -83.291   -83.248     0.043     (0)  
S(-2)         7.571e-02
   S6-2            1.262e-02   3.599e-03    -1.899    -2.444    -0.545     (0)  
   S5-2            7.048e-09   2.010e-09    -8.152    -8.697    -0.545     (0)  
   S4-2            6.533e-15   1.863e-15   -14.185   -14.730    -0.545     (0)  
   S3-2            3.649e-21   1.041e-21   -20.438   -20.983    -0.545     (0)  
   HS-             1.316e-31   8.484e-32   -30.881   -31.071    -0.191     (0)  
   S-2             4.511e-34   1.025e-34   -33.346   -33.989    -0.644     (0)  
   H2S             6.720e-35   7.418e-35   -34.173   -34.130     0.043     (0)  
   Fe(HS)2         0.000e+00   0.000e+00   -54.821   -54.779     0.043     (0)  
   Fe(HS)3-        0.000e+00   0.000e+00   -83.677   -83.813    -0.136     (0)  
S(6)          0.000e+00
   SO4-2           0.000e+00   0.000e+00   -48.332   -49.067    -0.735     (0)  
   FeSO4           0.000e+00   0.000e+00   -48.446   -48.403     0.043     (0)  
   NaSO4-          0.000e+00   0.000e+00   -52.185   -52.339    -0.155     (0)  
   NH4SO4-         0.000e+00   0.000e+00   -52.454   -52.615    -0.161     (0)  
   HSO4-           0.000e+00   0.000e+00   -56.910   -57.080    -0.170     (0)  
   FeSO4+          0.000e+00   0.000e+00   -68.894   -69.055    -0.161     (0)  
   Fe(SO4)2-       0.000e+00   0.000e+00  -116.486  -116.622    -0.136     (0)  

------------------------------Saturation indices-------------------------------

  Phase               SI** log IAP   log K(298 K,   1 atm)

  Fe(OH)2.7Cl0.3    5.90      2.86   -3.04  Fe(OH)2.7Cl0.3
  Fe2(SO4)3      -198.60   -195.02    3.58  Fe2(SO4)3
  Fe3(OH)8         10.35     30.57   20.22  Fe3(OH)8
  Ferrihydrite      1.19      6.08    4.89  Fe(OH)3
  FeS(ppt)        -18.74    -22.66   -3.92  FeS
  Goethite          5.58      6.08    0.50  FeOOH
  Greigite        -48.59   -107.62  -59.04  Fe3S4
  Halite           -6.29     -4.71    1.58  NaCl
  Hematite         16.18     12.17   -4.01  Fe2O3
  Jarosite-H     -107.78   -119.88  -12.10  (H3O)Fe3(SO4)2(OH)6
  Jarosite-Na    -102.65   -113.85  -11.20  NaFe3(SO4)2(OH)6
  Lepidocrocite     4.71      6.08    1.37  FeOOH
  Mackinawite     -20.52    -22.66   -2.14  FeS
  Maghemite         5.79     12.17    6.39  Fe2O3
  Magnetite        26.85     30.58    3.74  Fe3O4
  Melanterite     -48.21    -50.68   -2.47  FeSO4:7H2O
  Mirabilite      -55.94    -57.05   -1.11  Na2SO4:10H2O
  NaCl             15.29     -4.71  -20.00  NaCl
  NaNO3           -82.04   -102.04  -20.00  NaNO3
  O2(g)           -80.29      2.83   83.12  O2
  pe_fix            9.29      9.29    0.00  e-
  pH_fix          -10.00    -10.00    0.00  H+
  Pyrite           -2.03    -62.31  -60.28  FeS2
  Pyrrhotite      -19.41    -22.66   -3.25  FeS
  Sulfur          -37.54    -52.57  -15.03  S
  Thenardite      -56.83    -57.01   -0.18  Na2SO4

**For a gas, SI = log10(fugacity). Fugacity = pressure * phi / 1 atm.
  For ideal gases, phi = 1.

Reaction step 110.

Using solution 1.	PURE WATER
Using pure phase assemblage 1.	
Using reaction 1.	

Reaction 1.	

	  1.000e-02 moles of the following reaction have been added:

	                 Relative
	Reactant            moles

	Fe3S1                1.00000

	                 Relative
	Element             moles
	Fe                   3.00000
	S                    1.00000

-------------------------------Phase assemblage--------------------------------

                                                      Moles in assemblage
Phase               SI  log IAP  log K(T, P)   Initial       Final       Delta

Greigite          6.72     0.00     -6.72    0.000e+00           0   0.000e+00
Mackinawite     -20.48   -22.62     -2.14    0.000e+00           0   0.000e+00
NaNO3           -82.04  -102.04    -20.00    0.000e+00           0   0.000e+00
Pyrite           10.07     0.00    -10.07    0.000e+00           0   0.000e+00
Pyrrhotite      -19.37   -22.62     -3.25    0.000e+00           0   0.000e+00
pH_fix          -10.00   -10.00      0.00
	 HCl                is reactant       9.616e+00   9.575e+00  -4.022e-02
pe_fix            9.29     9.29      0.00
	 O2                 is reactant       5.950e-01   5.808e-01  -1.417e-02

-----------------------------Solution composition------------------------------

	Elements           Molality       Moles

	Cl                3.179e-01   4.246e-01
	Fe                2.496e-01   3.333e-01
	N                 1.497e-04   2.000e-04
	Na                1.497e-04   2.000e-04
	S                 8.319e-02   1.111e-01

----------------------------Description of solution----------------------------

                                       pH  =  10.000      Charge balance
                                       pe  =  -9.290      Adjusted to redox equilibrium
                        Activity of water  =   0.990
                 Ionic strength (mol/kgw)  =   4.742e-01
                       Mass of water (kg)  =   1.336e+00
                 Total alkalinity (eq/kg)  =   3.202e-01
                         Temperature (°C)  =  25.00
                  Electrical balance (eq)  =  -2.455e-09
 Percent error, 100*(Cat-|An|)/(Cat+|An|)  =  -0.00
                               Iterations  =   3
                                  Total H  = 1.484858e+02
                                  Total O  = 7.434522e+01

----------------------------Distribution of species----------------------------

                                               Log       Log       Log    mole V
   Species          Molality    Activity  Molality  Activity     Gamma    cm³/mol

   OH-             1.562e-04   9.947e-05    -3.806    -4.002    -0.196     (0)  
   H+              1.305e-10   1.000e-10    -9.884   -10.000    -0.116      0.00
   H2O             5.551e+01   9.901e-01     1.744    -0.004     0.000     18.07
Cl            3.179e-01
   Cl-             3.179e-01   1.996e-01    -0.498    -0.700    -0.202     (0)  
   FeCl+2          3.675e-23   8.053e-24   -22.435   -23.094    -0.659     (0)  
   FeCl2+          1.049e-23   7.179e-24   -22.979   -23.144    -0.165     (0)  
   FeCl3           1.285e-25   1.433e-25   -24.891   -24.844     0.047     (0)  
Fe(2)         2.496e-01
   FeOH+           1.283e-01   8.780e-02    -0.892    -1.056    -0.165     (0)  
   Fe+2            1.106e-01   2.804e-02    -0.956    -1.552    -0.596     (0)  
   Fe(OH)2         6.634e-03   7.399e-03    -2.178    -2.131     0.047     (0)  
   Fe(OH)3-        3.978e-03   2.722e-03    -2.400    -2.565    -0.165     (0)  
   FeSO4           0.000e+00   0.000e+00   -48.411   -48.363     0.047     (0)  
   Fe(HS)2         0.000e+00   0.000e+00   -54.778   -54.730     0.047     (0)  
   Fe(HS)3-        0.000e+00   0.000e+00   -83.622   -83.757    -0.135     (0)  
Fe(3)         4.671e-06
   Fe(OH)4-        4.641e-06   3.225e-06    -5.333    -5.491    -0.158     (0)  
   Fe(OH)3         2.920e-08   3.257e-08    -7.535    -7.487     0.047     (0)  
   Fe(OH)2+        4.030e-10   2.800e-10    -9.395    -9.553    -0.158     (0)  
   FeOH+2          3.897e-16   8.541e-17   -15.409   -16.068    -0.659     (0)  
   FeCl+2          3.675e-23   8.053e-24   -22.435   -23.094    -0.659     (0)  
   Fe+3            1.469e-23   1.336e-24   -22.833   -23.874    -1.041     (0)  
   FeCl2+          1.049e-23   7.179e-24   -22.979   -23.144    -0.165     (0)  
   FeCl3           1.285e-25   1.433e-25   -24.891   -24.844     0.047     (0)  
   Fe2(OH)2+4      2.884e-29   1.963e-31   -28.540   -30.707    -2.167     (0)  
   Fe3(OH)4+5      2.793e-35   1.149e-38   -34.554   -37.940    -3.386     (0)  
   FeSO4+          0.000e+00   0.000e+00   -68.851   -69.015    -0.165     (0)  
   Fe(SO4)2-       0.000e+00   0.000e+00  -116.441  -116.577    -0.135     (0)  
H(0)          4.826e-05
   H2              2.413e-05   2.692e-05    -4.617    -4.570     0.047     (0)  
N(-3)         1.497e-04
   NH3             1.127e-04   1.258e-04    -3.948    -3.900     0.047     (0)  
   NH4+            3.699e-05   2.207e-05    -4.432    -4.656    -0.224     (0)  
   NH4SO4-         0.000e+00   0.000e+00   -52.443   -52.608    -0.165     (0)  
N(3)          0.000e+00
   NO2-            0.000e+00   0.000e+00   -70.776   -70.912    -0.135     (0)  
N(5)          0.000e+00
   NO3-            0.000e+00   0.000e+00   -97.857   -98.066    -0.209     (0)  
Na            1.497e-04
   Na+             1.497e-04   1.063e-04    -3.825    -3.973    -0.149     (0)  
   NaSO4-          0.000e+00   0.000e+00   -52.177   -52.335    -0.158     (0)  
O(0)          0.000e+00
   O2              0.000e+00   0.000e+00   -83.296   -83.249     0.047     (0)  
S(-2)         8.319e-02
   S6-2            1.386e-02   3.983e-03    -1.858    -2.400    -0.542     (0)  
   S5-2            7.615e-09   2.187e-09    -8.118    -8.660    -0.542     (0)  
   S4-2            6.939e-15   1.993e-15   -14.159   -14.700    -0.542     (0)  
   S3-2            3.811e-21   1.095e-21   -20.419   -20.961    -0.542     (0)  
   HS-             1.355e-31   8.629e-32   -30.868   -31.064    -0.196     (0)  
   S-2             4.755e-34   1.042e-34   -33.323   -33.982    -0.659     (0)  
   H2S             6.764e-35   7.544e-35   -34.170   -34.122     0.047     (0)  
   Fe(HS)2         0.000e+00   0.000e+00   -54.778   -54.730     0.047     (0)  
   Fe(HS)3-        0.000e+00   0.000e+00   -83.622   -83.757    -0.135     (0)  
S(6)          0.000e+00
   SO4-2           0.000e+00   0.000e+00   -48.305   -49.061    -0.757     (0)  
   FeSO4           0.000e+00   0.000e+00   -48.411   -48.363     0.047     (0)  
   NaSO4-          0.000e+00   0.000e+00   -52.177   -52.335    -0.158     (0)  
   NH4SO4-         0.000e+00   0.000e+00   -52.443   -52.608    -0.165     (0)  
   HSO4-           0.000e+00   0.000e+00   -56.900   -57.074    -0.174     (0)  
   FeSO4+          0.000e+00   0.000e+00   -68.851   -69.015    -0.165     (0)  
   Fe(SO4)2-       0.000e+00   0.000e+00  -116.441  -116.577    -0.135     (0)  

------------------------------Saturation indices-------------------------------

  Phase               SI** log IAP   log K(298 K,   1 atm)

  Fe(OH)2.7Cl0.3    5.94      2.90   -3.04  Fe(OH)2.7Cl0.3
  Fe2(SO4)3      -198.51   -194.93    3.58  Fe2(SO4)3
  Fe3(OH)8         10.44     30.66   20.22  Fe3(OH)8
  Ferrihydrite      1.22      6.11    4.89  Fe(OH)3
  FeS(ppt)        -18.70    -22.62   -3.92  FeS
  Goethite          5.62      6.12    0.50  FeOOH
  Greigite        -48.46   -107.49  -59.04  Fe3S4
  Halite           -6.26     -4.67    1.58  NaCl
  Hematite         16.25     12.24   -4.01  Fe2O3
  Jarosite-H     -107.68   -119.78  -12.10  (H3O)Fe3(SO4)2(OH)6
  Jarosite-Na    -102.54   -113.74  -11.20  NaFe3(SO4)2(OH)6
  Lepidocrocite     4.75      6.12    1.37  FeOOH
  Mackinawite     -20.48    -22.62   -2.14  FeS
  Maghemite         5.85     12.24    6.39  Fe2O3
  Magnetite        26.95     30.68    3.74  Fe3O4
  Melanterite     -48.17    -50.64   -2.47  FeSO4:7H2O
  Mirabilite      -55.94    -57.05   -1.11  Na2SO4:10H2O
  NaCl             15.33     -4.67  -20.00  NaCl
  NaNO3           -82.04   -102.04  -20.00  NaNO3
  O2(g)           -80.29      2.83   83.12  O2
  pe_fix            9.29      9.29    0.00  e-
  pH_fix          -10.00    -10.00    0.00  H+
  Pyrite           -1.98    -62.26  -60.28  FeS2
  Pyrrhotite      -19.37    -22.62   -3.25  FeS
  Sulfur          -37.54    -52.56  -15.03  S
  Thenardite      -56.83    -57.01   -0.18  Na2SO4

**For a gas, SI = log10(fugacity). Fugacity = pressure * phi / 1 atm.
  For ideal gases, phi = 1.

------------------
End of simulation.
------------------

------------------------------------
Reading input data for simulation 5.
------------------------------------

-------------------------------
End of Run after 1.284 Seconds.
-------------------------------

