   Input file: C:\Users\jt2020\OneDrive - Imperial College London\Data\Thermodynamics\Thermodynamics\Phreeq\Reaction Progress\All models with pyrrhotite\S0\Final S0 input\S0 input S dominant.pqi
  Output file: C:\Users\jt2020\OneDrive - Imperial College London\Data\Thermodynamics\Thermodynamics\Phreeq\Reaction Progress\All models with pyrrhotite\S0\Final S0 input\S0 input S dominant.pqo
Database file: C:\Users\jt2020\OneDrive - Imperial College London\Data\Thermodynamics\Thermodynamics\Phreeq\Reaction Progress\All models with pyrrhotite\Database\llnlpyrrminteq.dat

------------------
Reading data base.
------------------

	SOLUTION_MASTER_SPECIES
	SOLUTION_SPECIES
	SOLUTION_SPECIES
	PHASES
	SURFACE_MASTER_SPECIES
	SURFACE_SPECIES
	END
------------------------------------
Reading input data for simulation 1.
------------------------------------

	DATABASE C:\Users\jt2020\OneDrive - Imperial College London\Data\Thermodynamics\Thermodynamics\Phreeq\Reaction Progress\All models with pyrrhotite\Database\llnlpyrrminteq.dat
	TITLE S0 pH 2 pe 0
	SOLUTION 1  PURE WATER
	            pH    2 charge
	          temp   25.0
	           pe     2.95
	PHASES
	       pH_fix
	                H + = H +
	                log_k = 0.0
	       pe_fix
	                e- = e-
	                log_k 0.0
	Sulfur
	    S + 2H+ + 2e- = H2S
	    log_k     4.843
	    delta_h   -9.23 kcal
	Pyrrhotite
	    FeS + 2Fe+3 = 3Fe+2 + Sulfur(s)   #reaction from Belzile et al 04 pyrr oxidation reaction
	    log_k     24.9953
	    delta_h        -17.9906 kcal      
	Mackinawite
	    FeS + 2H+ = Fe+2 + H2S
	    log_k     4.850
	    delta_h        -8.901 kcal
	Greigite
	    Fe3S4 = 3Mackinawite(s) + Sulfur(s)
	    log_k     -6.476
	    delta_h   37.637 kcal
	Pyrite
	    FeS2 = 0.3333333333Greigite(s) + 0.6666666666Sulfur(s)
	    log_k     -10.373
	    delta_h   7.061 kcal
	NaNO3
	    NaNO3 = Na+ + NO3-
	    log_K -20
	NaCl
	    NaCl = Cl- + Na+
	    log_k     -20
	END
-----
TITLE
-----

 S0 pH 2 pe 0

-------------------------------------------
Beginning of initial solution calculations.
-------------------------------------------

Initial solution 1.	PURE WATER

-----------------------------Solution composition------------------------------

	Elements           Molality       Moles

	Pure water     

----------------------------Description of solution----------------------------

                                       pH  =   6.999      Charge balance
                                       pe  =   2.950    
                        Activity of water  =   1.000
                 Ionic strength (mol/kgw)  =   1.003e-07
                       Mass of water (kg)  =   1.000e+00
                 Total alkalinity (eq/kg)  =   2.263e-21
                         Temperature (°C)  =  25.00
                  Electrical balance (eq)  =  -2.263e-21
 Percent error, 100*(Cat-|An|)/(Cat+|An|)  =  -0.00
                               Iterations  =  15
                                  Total H  = 1.110124e+02
                                  Total O  = 5.550622e+01

----------------------------Distribution of species----------------------------

                                               Log       Log       Log    mole V
   Species          Molality    Activity  Molality  Activity     Gamma    cm³/mol

   OH-             1.003e-07   1.002e-07    -6.999    -6.999    -0.000     (0)  
   H+              1.003e-07   1.002e-07    -6.999    -6.999    -0.000      0.00
   H2O             5.551e+01   1.000e+00     1.744    -0.000     0.000     18.07
H(0)          1.791e-23
   H2              8.954e-24   8.954e-24   -23.048   -23.048     0.000     (0)  
O(0)          0.000e+00
   O2              0.000e+00   0.000e+00   -46.284   -46.284     0.000     (0)  

------------------------------Saturation indices-------------------------------

  Phase               SI** log IAP   log K(298 K,   1 atm)

  O2(g)           -43.32     39.80   83.12  O2
  pe_fix           -2.95     -2.95    0.00  e-
  pH_fix           -7.00     -7.00    0.00  H+

**For a gas, SI = log10(fugacity). Fugacity = pressure * phi / 1 atm.
  For ideal gases, phi = 1.

------------------
End of simulation.
------------------

------------------------------------
Reading input data for simulation 2.
------------------------------------

	INCREMENTAL_REACTIONS
	REACTION
	Fe1S3 1
	10*1e-12 10*1e-11 10*1e-10 10*1e-9 10*1e-8 10*1e-7 10*1e-6 10*1e-5 10*1e-4  10*1e-3  10*1e-2 mol
	USE solution 1
	EQUILIBRIUM_PHASES 1
	        Mackinawite     0.0     0.0 
	        Greigite        0.0     0.0
	        Pyrite          0.0     0.0
	        Pyrrhotite      0.0     0.0
	        NaNO3           0.0     0.1
	        pH_fix          -2          HCl       10   
	        pe_fix          -2.95       O2(g)     10
	USER_GRAPH 1 Simulation 6
	    -headings               Pyrite Greigite Mackinawite Pyrrhotite
	    -axis_titles            "Fe and S added, Log moles" "Mineral, moles"
	    -chart_title            "Iron dominant system with S0 as the oxidant. Fix both +175mV at pH 5"
	    -axis_scale sy_axis     auto auto auto auto log
	    -initial_solutions      false
	    -connect_simulations    false
	    -axis_scale y_axis      auto auto auto auto Log
	    -axis_scale sy_axis	    auto auto auto auto Log
	    -plot_concentration_vs  x
	  -start
	 5 PUT(GET(1) + RXN, 1)
	  20 PLOT_XY log10(GET(1)), EQUI("Pyrite") color = Green, line_w = 0,   	symbol = Plus, symbol_size = 5, y_axis = 2
	  30 PLOT_XY log10(GET(1)), EQUI("Greigite") color = Blue, line_w = 0,   	symbol = Plus, symbol_size = 5, y_axis = 2
	  40 PLOT_XY log10(GET(1)), EQUI("Mackinawite") color = Cyan, line_w = 0,   	symbol = Plus, symbol_size = 5, y_axis = 2
	  50 PLOT_XY log10(GET(1)), EQUI("Pyrrhotite") color = Red, line_w = 0,   	symbol = Plus, symbol_size = 5, y_axis = 2
	  -end
	    -active                 true
	SELECTED_OUTPUT
	    file                 S0 S dominated pH 2 oxic H2S.csv
	    saturation_indices   Mackinawite  Greigite  Pyrite Pyrrhotite
	    reaction             
	    totals               Fe S 
	    equilibrium_phases   Mackinawite  Greigite  Pyrite Pyrrhotite
	TITLE S0 pH 7 pe -3.38
	SOLUTION 1  PURE WATER
	            pH    7 charge
	          temp   25.0
	           pe     -3.38
	PHASES
	       pH_fix
	                H + = H +
	                log_k = 0.0
	       pe_fix
	                e- = e-
	                log_k 0.0
	Sulfur
	    S + H+ + 2e- = HS-
	    log_k     -2.11
	    delta_h   -4.2 kcal
	Pyrrhotite
	    FeS + 2Fe+3 = 3Fe+2 + Sulfur(s)   #reaction from Belzile et al 04 pyrr oxidation reaction
	    log_k     24.9953
	    delta_h        -17.9906 kcal      
	Mackinawite
	    FeS + H+ = Fe+2 + HS-
	    log_k     -2.137
	    delta_h   -3.578 kcal
	Greigite
	    Fe3S4 = 3Mackinawite(s) + Sulfur(s)
	    log_k     -6.476
	    delta_h   37.637 kcal
	Pyrite
	    FeS2 = 0.3333333333Greigite(s) + 0.6666666666Sulfur(s)
	    log_k     -10.373
	    delta_h   7.061 kcal
	NaNO3
	    NaNO3 = Na+ + NO3-
	    log_K -20
	NaCl
	    NaCl = Cl- + Na+
	    log_k     -20
	END
-----
TITLE
-----

 S0 pH 7 pe -3.38

-------------------------------------------
Beginning of initial solution calculations.
-------------------------------------------

Initial solution 1.	PURE WATER

-----------------------------Solution composition------------------------------

	Elements           Molality       Moles

	Pure water     

----------------------------Description of solution----------------------------

                                       pH  =   6.999      Charge balance
                                       pe  =  -3.380    
                        Activity of water  =   1.000
                 Ionic strength (mol/kgw)  =   1.003e-07
                       Mass of water (kg)  =   1.000e+00
                 Total alkalinity (eq/kg)  =   1.295e-17
                         Temperature (°C)  =  25.00
                  Electrical balance (eq)  =  -1.295e-17
 Percent error, 100*(Cat-|An|)/(Cat+|An|)  =  -0.00
                               Iterations  =   2
                                  Total H  = 1.110124e+02
                                  Total O  = 5.550622e+01

----------------------------Distribution of species----------------------------

                                               Log       Log       Log    mole V
   Species          Molality    Activity  Molality  Activity     Gamma    cm³/mol

   OH-             1.003e-07   1.002e-07    -6.999    -6.999    -0.000     (0)  
   H+              1.003e-07   1.002e-07    -6.999    -6.999    -0.000      0.00
   H2O             5.551e+01   1.000e+00     1.744    -0.000     0.000     18.07
H(0)          8.185e-11
   H2              4.093e-11   4.093e-11   -10.388   -10.388     0.000     (0)  
O(0)          0.000e+00
   O2              0.000e+00   0.000e+00   -71.604   -71.604     0.000     (0)  

------------------------------Saturation indices-------------------------------

  Phase               SI** log IAP   log K(298 K,   1 atm)

  O2(g)           -68.64     14.48   83.12  O2
  pe_fix            3.38      3.38    0.00  e-
  pH_fix           -7.00     -7.00    0.00  H+

**For a gas, SI = log10(fugacity). Fugacity = pressure * phi / 1 atm.
  For ideal gases, phi = 1.

-----------------------------------------
Beginning of batch-reaction calculations.
-----------------------------------------

Reaction step 1.

Using solution 1.	PURE WATER
Using pure phase assemblage 1.	
Using reaction 1.	

Reaction 1.	

	  1.000e-12 moles of the following reaction have been added:

	                 Relative
	Reactant            moles

	Fe1S3                1.00000

	                 Relative
	Element             moles
	Fe                   1.00000
	S                    3.00000

-------------------------------Phase assemblage--------------------------------

                                                      Moles in assemblage
Phase               SI  log IAP  log K(T, P)   Initial       Final       Delta

Greigite          6.48     0.00     -6.48    0.000e+00           0   0.000e+00
Mackinawite     -28.65   -30.78     -2.14    0.000e+00           0   0.000e+00
NaNO3           -57.79   -77.79    -20.00    1.000e-01           0  -1.000e-01
Pyrite           10.37     0.00    -10.37    0.000e+00           0   0.000e+00
Pyrrhotite      -17.32     7.67     25.00    0.000e+00           0   0.000e+00
pH_fix           -2.00    -2.00      0.00
	 HCl                is reactant       1.000e+01   9.787e+00  -2.126e-01
pe_fix           -2.95    -2.95      0.00
	 O2                 is reactant       1.000e+01   1.020e+01   2.000e-01

-----------------------------Solution composition------------------------------

	Elements           Molality       Moles

	Cl                2.129e-01   2.126e-01
	Fe                1.002e-12   1.000e-12
	N                 1.002e-01   1.000e-01
	Na                1.002e-01   1.000e-01
	S                 3.005e-12   3.000e-12

----------------------------Description of solution----------------------------

                                       pH  =   2.000      Charge balance
                                       pe  =   2.950      Adjusted to redox equilibrium
                        Activity of water  =   0.993
                 Ionic strength (mol/kgw)  =   2.129e-01
                       Mass of water (kg)  =   9.982e-01
                 Total alkalinity (eq/kg)  =  -1.258e-02
                         Temperature (°C)  =  25.00
                  Electrical balance (eq)  =  -2.118e-15
 Percent error, 100*(Cat-|An|)/(Cat+|An|)  =  -0.00
                               Iterations  =  19
                                  Total H  = 1.112250e+02
                                  Total O  = 5.540622e+01

----------------------------Distribution of species----------------------------

                                               Log       Log       Log    mole V
   Species          Molality    Activity  Molality  Activity     Gamma    cm³/mol

   H+              1.258e-02   1.000e-02    -1.900    -2.000    -0.100      0.00
   OH-             1.421e-12   9.973e-13   -11.847   -12.001    -0.154     (0)  
   H2O             5.551e+01   9.928e-01     1.744    -0.003     0.000     18.07
Cl            2.129e-01
   Cl-             2.129e-01   1.478e-01    -0.672    -0.830    -0.159     (0)  
   FeCl+2          4.083e-22   1.190e-22   -21.389   -21.925    -0.536     (0)  
   FeCl2+          1.069e-22   7.854e-23   -21.971   -22.105    -0.134     (0)  
   FeCl3           1.105e-24   1.161e-24   -23.957   -23.935     0.021     (0)  
Fe(2)         1.002e-12
   Fe+2            1.002e-12   3.219e-13   -11.999   -12.492    -0.493     (0)  
   FeOH+           1.376e-20   1.011e-20   -19.862   -19.995    -0.134     (0)  
   FeSO4           2.354e-23   2.473e-23   -22.628   -22.607     0.021     (0)  
   Fe(OH)2         8.131e-30   8.540e-30   -29.090   -29.069     0.021     (0)  
   Fe(OH)3-        4.287e-38   3.150e-38   -37.368   -37.502    -0.134     (0)  
   Fe(HS)2         0.000e+00   0.000e+00   -44.147   -44.126     0.021     (0)  
   Fe(HS)3-        0.000e+00   0.000e+00   -62.253   -62.381    -0.128     (0)  
Fe(3)         7.854e-22
   FeCl+2          4.083e-22   1.190e-22   -21.389   -21.925    -0.536     (0)  
   Fe+3            2.097e-22   2.665e-23   -21.678   -22.574    -0.896     (0)  
   FeCl2+          1.069e-22   7.854e-23   -21.971   -22.105    -0.134     (0)  
   FeOH+2          5.863e-23   1.708e-23   -22.232   -22.767    -0.536     (0)  
   FeCl3           1.105e-24   1.161e-24   -23.957   -23.935     0.021     (0)  
   Fe(OH)2+        7.566e-25   5.616e-25   -24.121   -24.251    -0.129     (0)  
   Fe(OH)3         6.237e-31   6.551e-31   -30.205   -30.184     0.021     (0)  
   FeSO4+          1.303e-31   9.576e-32   -30.885   -31.019    -0.134     (0)  
   Fe(OH)4-        8.761e-37   6.504e-37   -36.057   -36.187    -0.129     (0)  
   Fe(SO4)2-       0.000e+00   0.000e+00   -41.755   -41.883    -0.128     (0)  
   Fe2(OH)2+4      0.000e+00   0.000e+00   -42.049   -44.105    -2.055     (0)  
   Fe3(OH)4+5      0.000e+00   0.000e+00   -62.824   -66.035    -3.211     (0)  
H(0)          1.697e-13
   H2              8.486e-14   8.913e-14   -13.071   -13.050     0.021     (0)  
N(-3)         1.002e-01
   NH4+            1.002e-01   6.763e-02    -0.999    -1.170    -0.171     (0)  
   NH3             3.669e-09   3.854e-09    -8.435    -8.414     0.021     (0)  
   NH4SO4-         5.121e-13   3.763e-13   -12.291   -12.424    -0.134     (0)  
N(3)          0.000e+00
   NO2-            0.000e+00   0.000e+00   -57.855   -57.983    -0.128     (0)  
N(5)          0.000e+00
   NO3-            0.000e+00   0.000e+00   -76.495   -76.656    -0.162     (0)  
Na            1.002e-01
   Na+             1.002e-01   7.417e-02    -0.999    -1.130    -0.131     (0)  
   NaSO4-          2.163e-13   1.606e-13   -12.665   -12.794    -0.129     (0)  
O(0)          0.000e+00
   O2              0.000e+00   0.000e+00   -66.308   -66.286     0.021     (0)  
S(-2)         4.250e-16
   H2S             4.250e-16   4.464e-16   -15.372   -15.350     0.021     (0)  
   HS-             7.274e-21   5.105e-21   -20.138   -20.292    -0.154     (0)  
   S5-2            4.235e-28   1.297e-28   -27.373   -27.887    -0.514     (0)  
   S4-2            2.471e-28   7.569e-29   -27.607   -28.121    -0.514     (0)  
   S6-2            2.192e-28   6.715e-29   -27.659   -28.173    -0.514     (0)  
   S-2             2.116e-31   6.166e-32   -30.674   -31.210    -0.536     (0)  
   S3-2            8.707e-32   2.667e-32   -31.060   -31.574    -0.514     (0)  
   S2-2            4.941e-33   1.514e-33   -32.306   -32.820    -0.514     (0)  
   Fe(HS)2         0.000e+00   0.000e+00   -44.147   -44.126     0.021     (0)  
   Fe(HS)3-        0.000e+00   0.000e+00   -62.253   -62.381    -0.128     (0)  
S(6)          3.005e-12
   SO4-2           1.698e-12   4.319e-13   -11.770   -12.365    -0.595     (0)  
   HSO4-           5.784e-13   4.191e-13   -12.238   -12.378    -0.140     (0)  
   NH4SO4-         5.121e-13   3.763e-13   -12.291   -12.424    -0.134     (0)  
   NaSO4-          2.163e-13   1.606e-13   -12.665   -12.794    -0.129     (0)  
   FeSO4           2.354e-23   2.473e-23   -22.628   -22.607     0.021     (0)  
   FeSO4+          1.303e-31   9.576e-32   -30.885   -31.019    -0.134     (0)  
   Fe(SO4)2-       0.000e+00   0.000e+00   -41.755   -41.883    -0.128     (0)  

------------------------------Saturation indices-------------------------------

  Phase               SI** log IAP   log K(298 K,   1 atm)

  Fe(OH)2.7Cl0.3  -14.39    -17.43   -3.04  Fe(OH)2.7Cl0.3
  Fe2(SO4)3       -85.82    -82.24    3.58  Fe2(SO4)3
  Fe3(OH)8        -61.89    -41.67   20.22  Fe3(OH)8
  Ferrihydrite    -21.47    -16.58    4.89  Fe(OH)3
  FeS(ppt)        -26.87    -30.78   -3.92  FeS
  Goethite        -17.08    -16.58    0.50  FeOOH
  Greigite        -89.75   -104.74  -15.00  Fe3S4
  Halite           -3.54     -1.96    1.58  NaCl
  Hematite        -29.15    -33.16   -4.01  Fe2O3
  Jarosite-H      -70.37    -82.47  -12.10  (H3O)Fe3(SO4)2(OH)6
  Jarosite-Na     -70.40    -81.60  -11.20  NaFe3(SO4)2(OH)6
  Lepidocrocite   -17.95    -16.58    1.37  FeOOH
  Mackinawite     -28.65    -30.78   -2.14  FeS
  Maghemite       -39.54    -33.16    6.39  Fe2O3
  Magnetite       -45.39    -41.65    3.74  Fe3O4
  Melanterite     -22.41    -24.88   -2.47  FeSO4:7H2O
  Mirabilite      -13.54    -14.66   -1.11  Na2SO4:10H2O
  NaCl             18.04     -1.96  -20.00  NaCl
  NaNO3           -57.79    -77.79  -20.00  NaNO3
  O2(g)           -63.33     19.79   83.12  O2
  pe_fix           -2.95     -2.95    0.00  e-
  pH_fix           -2.00     -2.00    0.00  H+
  Pyrite          -26.40    -43.18  -16.78  FeS2
  Pyrrhotite      -27.61     -4.72   22.89  FeS
  Sulfur          -10.28    -12.39   -2.11  S
  Thenardite      -14.45    -14.62   -0.18  Na2SO4

**For a gas, SI = log10(fugacity). Fugacity = pressure * phi / 1 atm.
  For ideal gases, phi = 1.

Reaction step 2.

Using solution 1.	PURE WATER
Using pure phase assemblage 1.	
Using reaction 1.	

Reaction 1.	

	  1.000e-12 moles of the following reaction have been added:

	                 Relative
	Reactant            moles

	Fe1S3                1.00000

	                 Relative
	Element             moles
	Fe                   1.00000
	S                    3.00000

-------------------------------Phase assemblage--------------------------------

                                                      Moles in assemblage
Phase               SI  log IAP  log K(T, P)   Initial       Final       Delta

Greigite          6.48     0.00     -6.48    0.000e+00           0   0.000e+00
Mackinawite     -28.05   -30.18     -2.14    0.000e+00           0   0.000e+00
NaNO3           -57.79   -77.79    -20.00    0.000e+00           0   0.000e+00
Pyrite           10.37     0.00    -10.37    0.000e+00           0   0.000e+00
Pyrrhotite      -17.02     7.97     25.00    0.000e+00           0   0.000e+00
pH_fix           -2.00    -2.00      0.00
	 HCl                is reactant       9.787e+00   9.787e+00   3.411e-12
pe_fix           -2.95    -2.95      0.00
	 O2                 is reactant       1.020e+01   1.020e+01  -4.999e-12

-----------------------------Solution composition------------------------------

	Elements           Molality       Moles

	Cl                2.129e-01   2.126e-01
	Fe                2.004e-12   2.000e-12
	N                 1.002e-01   1.000e-01
	Na                1.002e-01   1.000e-01
	S                 6.011e-12   6.000e-12

----------------------------Description of solution----------------------------

                                       pH  =   2.000      Charge balance
                                       pe  =   2.950      Adjusted to redox equilibrium
                        Activity of water  =   0.993
                 Ionic strength (mol/kgw)  =   2.129e-01
                       Mass of water (kg)  =   9.982e-01
                 Total alkalinity (eq/kg)  =  -1.258e-02
                         Temperature (°C)  =  25.00
                  Electrical balance (eq)  =  -2.137e-15
 Percent error, 100*(Cat-|An|)/(Cat+|An|)  =  -0.00
                               Iterations  =   5
                                  Total H  = 1.112250e+02
                                  Total O  = 5.540622e+01

----------------------------Distribution of species----------------------------

                                               Log       Log       Log    mole V
   Species          Molality    Activity  Molality  Activity     Gamma    cm³/mol

   H+              1.258e-02   1.000e-02    -1.900    -2.000    -0.100      0.00
   OH-             1.421e-12   9.973e-13   -11.847   -12.001    -0.154     (0)  
   H2O             5.551e+01   9.928e-01     1.744    -0.003     0.000     18.07
Cl            2.129e-01
   Cl-             2.129e-01   1.478e-01    -0.672    -0.830    -0.159     (0)  
   FeCl+2          8.166e-22   2.379e-22   -21.088   -21.624    -0.536     (0)  
   FeCl2+          2.138e-22   1.571e-22   -21.670   -21.804    -0.134     (0)  
   FeCl3           2.211e-24   2.322e-24   -23.656   -23.634     0.021     (0)  
Fe(2)         2.004e-12
   Fe+2            2.004e-12   6.439e-13   -11.698   -12.191    -0.493     (0)  
   FeOH+           2.751e-20   2.021e-20   -19.560   -19.694    -0.134     (0)  
   FeSO4           9.417e-23   9.891e-23   -22.026   -22.005     0.021     (0)  
   Fe(OH)2         1.626e-29   1.708e-29   -28.789   -28.768     0.021     (0)  
   Fe(OH)3-        8.575e-38   6.300e-38   -37.067   -37.201    -0.134     (0)  
   Fe(HS)2         0.000e+00   0.000e+00   -43.244   -43.223     0.021     (0)  
   Fe(HS)3-        0.000e+00   0.000e+00   -61.049   -61.177    -0.128     (0)  
Fe(3)         1.571e-21
   FeCl+2          8.166e-22   2.379e-22   -21.088   -21.624    -0.536     (0)  
   Fe+3            4.195e-22   5.331e-23   -21.377   -22.273    -0.896     (0)  
   FeCl2+          2.138e-22   1.571e-22   -21.670   -21.804    -0.134     (0)  
   FeOH+2          1.173e-22   3.417e-23   -21.931   -22.466    -0.536     (0)  
   FeCl3           2.211e-24   2.322e-24   -23.656   -23.634     0.021     (0)  
   Fe(OH)2+        1.513e-24   1.123e-24   -23.820   -23.950    -0.129     (0)  
   Fe(OH)3         1.247e-30   1.310e-30   -29.904   -29.883     0.021     (0)  
   FeSO4+          5.213e-31   3.830e-31   -30.283   -30.417    -0.134     (0)  
   Fe(OH)4-        1.752e-36   1.301e-36   -35.756   -35.886    -0.129     (0)  
   Fe(SO4)2-       0.000e+00   0.000e+00   -40.852   -40.980    -0.128     (0)  
   Fe2(OH)2+4      0.000e+00   0.000e+00   -41.447   -43.503    -2.055     (0)  
   Fe3(OH)4+5      0.000e+00   0.000e+00   -61.921   -65.132    -3.211     (0)  
H(0)          1.697e-13
   H2              8.486e-14   8.913e-14   -13.071   -13.050     0.021     (0)  
N(-3)         1.002e-01
   NH4+            1.002e-01   6.763e-02    -0.999    -1.170    -0.171     (0)  
   NH3             3.669e-09   3.854e-09    -8.435    -8.414     0.021     (0)  
   NH4SO4-         1.024e-12   7.525e-13   -11.990   -12.123    -0.134     (0)  
N(3)          0.000e+00
   NO2-            0.000e+00   0.000e+00   -57.855   -57.983    -0.128     (0)  
N(5)          0.000e+00
   NO3-            0.000e+00   0.000e+00   -76.495   -76.656    -0.162     (0)  
Na            1.002e-01
   Na+             1.002e-01   7.417e-02    -0.999    -1.130    -0.131     (0)  
   NaSO4-          4.326e-13   3.211e-13   -12.364   -12.493    -0.129     (0)  
O(0)          0.000e+00
   O2              0.000e+00   0.000e+00   -66.308   -66.286     0.021     (0)  
S(-2)         8.500e-16
   H2S             8.500e-16   8.927e-16   -15.071   -15.049     0.021     (0)  
   HS-             1.455e-20   1.021e-20   -19.837   -19.991    -0.154     (0)  
   S5-2            8.470e-28   2.594e-28   -27.072   -27.586    -0.514     (0)  
   S4-2            4.942e-28   1.514e-28   -27.306   -27.820    -0.514     (0)  
   S6-2            4.384e-28   1.343e-28   -27.358   -27.872    -0.514     (0)  
   S-2             4.232e-31   1.233e-31   -30.373   -30.909    -0.536     (0)  
   S3-2            1.741e-31   5.334e-32   -30.759   -31.273    -0.514     (0)  
   S2-2            9.883e-33   3.027e-33   -32.005   -32.519    -0.514     (0)  
   Fe(HS)2         0.000e+00   0.000e+00   -43.244   -43.223     0.021     (0)  
   Fe(HS)3-        0.000e+00   0.000e+00   -61.049   -61.177    -0.128     (0)  
S(6)          6.010e-12
   SO4-2           3.396e-12   8.638e-13   -11.469   -12.064    -0.595     (0)  
   HSO4-           1.157e-12   8.382e-13   -11.937   -12.077    -0.140     (0)  
   NH4SO4-         1.024e-12   7.525e-13   -11.990   -12.123    -0.134     (0)  
   NaSO4-          4.326e-13   3.211e-13   -12.364   -12.493    -0.129     (0)  
   FeSO4           9.417e-23   9.891e-23   -22.026   -22.005     0.021     (0)  
   FeSO4+          5.213e-31   3.830e-31   -30.283   -30.417    -0.134     (0)  
   Fe(SO4)2-       0.000e+00   0.000e+00   -40.852   -40.980    -0.128     (0)  

------------------------------Saturation indices-------------------------------

  Phase               SI** log IAP   log K(298 K,   1 atm)

  Fe(OH)2.7Cl0.3  -14.09    -17.13   -3.04  Fe(OH)2.7Cl0.3
  Fe2(SO4)3       -84.32    -80.74    3.58  Fe2(SO4)3
  Fe3(OH)8        -60.98    -40.76   20.22  Fe3(OH)8
  Ferrihydrite    -21.17    -16.28    4.89  Fe(OH)3
  FeS(ppt)        -26.27    -30.18   -3.92  FeS
  Goethite        -16.78    -16.28    0.50  FeOOH
  Greigite        -87.64   -102.64  -15.00  Fe3S4
  Halite           -3.54     -1.96    1.58  NaCl
  Hematite        -28.55    -32.56   -4.01  Fe2O3
  Jarosite-H      -68.87    -80.97  -12.10  (H3O)Fe3(SO4)2(OH)6
  Jarosite-Na     -68.90    -80.10  -11.20  NaFe3(SO4)2(OH)6
  Lepidocrocite   -17.65    -16.28    1.37  FeOOH
  Mackinawite     -28.05    -30.18   -2.14  FeS
  Maghemite       -38.94    -32.56    6.39  Fe2O3
  Magnetite       -44.49    -40.75    3.74  Fe3O4
  Melanterite     -21.81    -24.28   -2.47  FeSO4:7H2O
  Mirabilite      -13.24    -14.35   -1.11  Na2SO4:10H2O
  NaCl             18.04     -1.96  -20.00  NaCl
  NaNO3           -57.79    -77.79  -20.00  NaNO3
  O2(g)           -63.33     19.79   83.12  O2
  pe_fix           -2.95     -2.95    0.00  e-
  pH_fix           -2.00     -2.00    0.00  H+
  Pyrite          -25.49    -42.27  -16.78  FeS2
  Pyrrhotite      -27.00     -4.12   22.89  FeS
  Sulfur           -9.98    -12.09   -2.11  S
  Thenardite      -14.14    -14.32   -0.18  Na2SO4

**For a gas, SI = log10(fugacity). Fugacity = pressure * phi / 1 atm.
  For ideal gases, phi = 1.

Reaction step 3.

Using solution 1.	PURE WATER
Using pure phase assemblage 1.	
Using reaction 1.	

Reaction 1.	

	  1.000e-12 moles of the following reaction have been added:

	                 Relative
	Reactant            moles

	Fe1S3                1.00000

	                 Relative
	Element             moles
	Fe                   1.00000
	S                    3.00000

-------------------------------Phase assemblage--------------------------------

                                                      Moles in assemblage
Phase               SI  log IAP  log K(T, P)   Initial       Final       Delta

Greigite          6.48     0.00     -6.48    0.000e+00           0   0.000e+00
Mackinawite     -27.69   -29.83     -2.14    0.000e+00           0   0.000e+00
NaNO3           -57.79   -77.79    -20.00    0.000e+00           0   0.000e+00
Pyrite           10.37     0.00    -10.37    0.000e+00           0   0.000e+00
Pyrrhotite      -16.85     8.15     25.00    0.000e+00           0   0.000e+00
pH_fix           -2.00    -2.00      0.00
	 HCl                is reactant       9.787e+00   9.787e+00   3.411e-12
pe_fix           -2.95    -2.95      0.00
	 O2                 is reactant       1.020e+01   1.020e+01  -5.000e-12

-----------------------------Solution composition------------------------------

	Elements           Molality       Moles

	Cl                2.129e-01   2.126e-01
	Fe                3.005e-12   3.000e-12
	N                 1.002e-01   1.000e-01
	Na                1.002e-01   1.000e-01
	S                 9.016e-12   9.000e-12

----------------------------Description of solution----------------------------

                                       pH  =   2.000      Charge balance
                                       pe  =   2.950      Adjusted to redox equilibrium
                        Activity of water  =   0.993
                 Ionic strength (mol/kgw)  =   2.129e-01
                       Mass of water (kg)  =   9.982e-01
                 Total alkalinity (eq/kg)  =  -1.258e-02
                         Temperature (°C)  =  25.00
                  Electrical balance (eq)  =  -2.114e-15
 Percent error, 100*(Cat-|An|)/(Cat+|An|)  =  -0.00
                               Iterations  =   4
                                  Total H  = 1.112250e+02
                                  Total O  = 5.540622e+01

----------------------------Distribution of species----------------------------

                                               Log       Log       Log    mole V
   Species          Molality    Activity  Molality  Activity     Gamma    cm³/mol

   H+              1.258e-02   1.000e-02    -1.900    -2.000    -0.100      0.00
   OH-             1.421e-12   9.973e-13   -11.847   -12.001    -0.154     (0)  
   H2O             5.551e+01   9.928e-01     1.744    -0.003     0.000     18.07
Cl            2.129e-01
   Cl-             2.129e-01   1.478e-01    -0.672    -0.830    -0.159     (0)  
   FeCl+2          1.225e-21   3.569e-22   -20.912   -21.447    -0.536     (0)  
   FeCl2+          3.207e-22   2.356e-22   -21.494   -21.628    -0.134     (0)  
   FeCl3           3.316e-24   3.482e-24   -23.479   -23.458     0.021     (0)  
Fe(2)         3.005e-12
   Fe+2            3.005e-12   9.658e-13   -11.522   -12.015    -0.493     (0)  
   FeOH+           4.127e-20   3.032e-20   -19.384   -19.518    -0.134     (0)  
   FeSO4           2.119e-22   2.225e-22   -21.674   -21.653     0.021     (0)  
   Fe(OH)2         2.439e-29   2.562e-29   -28.613   -28.591     0.021     (0)  
   Fe(OH)3-        1.286e-37   9.450e-38   -36.891   -37.025    -0.134     (0)  
   Fe(HS)2         0.000e+00   0.000e+00   -42.716   -42.695     0.021     (0)  
   Fe(HS)3-        0.000e+00   0.000e+00   -60.344   -60.473    -0.128     (0)  
Fe(3)         2.356e-21
   FeCl+2          1.225e-21   3.569e-22   -20.912   -21.447    -0.536     (0)  
   Fe+3            6.292e-22   7.996e-23   -21.201   -22.097    -0.896     (0)  
   FeCl2+          3.207e-22   2.356e-22   -21.494   -21.628    -0.134     (0)  
   FeOH+2          1.759e-22   5.125e-23   -21.755   -22.290    -0.536     (0)  
   FeCl3           3.316e-24   3.482e-24   -23.479   -23.458     0.021     (0)  
   Fe(OH)2+        2.270e-24   1.685e-24   -23.644   -23.773    -0.129     (0)  
   Fe(OH)3         1.871e-30   1.965e-30   -29.728   -29.707     0.021     (0)  
   FeSO4+          1.173e-30   8.618e-31   -29.931   -30.065    -0.134     (0)  
   Fe(OH)4-        2.628e-36   1.951e-36   -35.580   -35.710    -0.129     (0)  
   Fe(SO4)2-       0.000e+00   0.000e+00   -40.324   -40.452    -0.128     (0)  
   Fe2(OH)2+4      0.000e+00   0.000e+00   -41.095   -43.151    -2.055     (0)  
   Fe3(OH)4+5      0.000e+00   0.000e+00   -61.392   -64.604    -3.211     (0)  
H(0)          1.697e-13
   H2              8.486e-14   8.913e-14   -13.071   -13.050     0.021     (0)  
N(-3)         1.002e-01
   NH4+            1.002e-01   6.763e-02    -0.999    -1.170    -0.171     (0)  
   NH3             3.669e-09   3.854e-09    -8.435    -8.414     0.021     (0)  
   NH4SO4-         1.536e-12   1.129e-12   -11.813   -11.947    -0.134     (0)  
N(3)          0.000e+00
   NO2-            0.000e+00   0.000e+00   -57.855   -57.983    -0.128     (0)  
N(5)          0.000e+00
   NO3-            0.000e+00   0.000e+00   -76.495   -76.656    -0.162     (0)  
Na            1.002e-01
   Na+             1.002e-01   7.417e-02    -0.999    -1.130    -0.131     (0)  
   NaSO4-          6.489e-13   4.817e-13   -12.188   -12.317    -0.129     (0)  
O(0)          0.000e+00
   O2              0.000e+00   0.000e+00   -66.308   -66.286     0.021     (0)  
S(-2)         1.275e-15
   H2S             1.275e-15   1.339e-15   -14.894   -14.873     0.021     (0)  
   HS-             2.182e-20   1.532e-20   -19.661   -19.815    -0.154     (0)  
   S5-2            1.270e-27   3.892e-28   -26.896   -27.410    -0.514     (0)  
   S4-2            7.413e-28   2.271e-28   -27.130   -27.644    -0.514     (0)  
   S6-2            6.576e-28   2.014e-28   -27.182   -27.696    -0.514     (0)  
   S-2             6.348e-31   1.850e-31   -30.197   -30.733    -0.536     (0)  
   S3-2            2.612e-31   8.001e-32   -30.583   -31.097    -0.514     (0)  
   S2-2            1.482e-32   4.541e-33   -31.829   -32.343    -0.514     (0)  
   Fe(HS)2         0.000e+00   0.000e+00   -42.716   -42.695     0.021     (0)  
   Fe(HS)3-        0.000e+00   0.000e+00   -60.344   -60.473    -0.128     (0)  
S(6)          9.015e-12
   SO4-2           5.094e-12   1.296e-12   -11.293   -11.887    -0.595     (0)  
   HSO4-           1.735e-12   1.257e-12   -11.761   -11.901    -0.140     (0)  
   NH4SO4-         1.536e-12   1.129e-12   -11.813   -11.947    -0.134     (0)  
   NaSO4-          6.489e-13   4.817e-13   -12.188   -12.317    -0.129     (0)  
   FeSO4           2.119e-22   2.225e-22   -21.674   -21.653     0.021     (0)  
   FeSO4+          1.173e-30   8.618e-31   -29.931   -30.065    -0.134     (0)  
   Fe(SO4)2-       0.000e+00   0.000e+00   -40.324   -40.452    -0.128     (0)  

------------------------------Saturation indices-------------------------------

  Phase               SI** log IAP   log K(298 K,   1 atm)

  Fe(OH)2.7Cl0.3  -13.91    -16.95   -3.04  Fe(OH)2.7Cl0.3
  Fe2(SO4)3       -83.44    -79.86    3.58  Fe2(SO4)3
  Fe3(OH)8        -60.46    -40.23   20.22  Fe3(OH)8
  Ferrihydrite    -21.00    -16.11    4.89  Fe(OH)3
  FeS(ppt)        -25.91    -29.83   -3.92  FeS
  Goethite        -16.60    -16.10    0.50  FeOOH
  Greigite        -86.41   -101.40  -15.00  Fe3S4
  Halite           -3.54     -1.96    1.58  NaCl
  Hematite        -28.20    -32.20   -4.01  Fe2O3
  Jarosite-H      -67.99    -80.09  -12.10  (H3O)Fe3(SO4)2(OH)6
  Jarosite-Na     -68.01    -79.21  -11.20  NaFe3(SO4)2(OH)6
  Lepidocrocite   -17.47    -16.10    1.37  FeOOH
  Mackinawite     -27.69    -29.83   -2.14  FeS
  Maghemite       -38.59    -32.20    6.39  Fe2O3
  Magnetite       -43.96    -40.22    3.74  Fe3O4
  Melanterite     -21.45    -23.92   -2.47  FeSO4:7H2O
  Mirabilite      -13.06    -14.18   -1.11  Na2SO4:10H2O
  NaCl             18.04     -1.96  -20.00  NaCl
  NaNO3           -57.79    -77.79  -20.00  NaNO3
  O2(g)           -63.33     19.79   83.12  O2
  pe_fix           -2.95     -2.95    0.00  e-
  pH_fix           -2.00     -2.00    0.00  H+
  Pyrite          -24.97    -41.74  -16.78  FeS2
  Pyrrhotite      -26.65     -3.77   22.89  FeS
  Sulfur           -9.80    -11.91   -2.11  S
  Thenardite      -13.97    -14.15   -0.18  Na2SO4

**For a gas, SI = log10(fugacity). Fugacity = pressure * phi / 1 atm.
  For ideal gases, phi = 1.

Reaction step 4.

Using solution 1.	PURE WATER
Using pure phase assemblage 1.	
Using reaction 1.	

Reaction 1.	

	  1.000e-12 moles of the following reaction have been added:

	                 Relative
	Reactant            moles

	Fe1S3                1.00000

	                 Relative
	Element             moles
	Fe                   1.00000
	S                    3.00000

-------------------------------Phase assemblage--------------------------------

                                                      Moles in assemblage
Phase               SI  log IAP  log K(T, P)   Initial       Final       Delta

Greigite          6.48     0.00     -6.48    0.000e+00           0   0.000e+00
Mackinawite     -27.44   -29.58     -2.14    0.000e+00           0   0.000e+00
NaNO3           -57.79   -77.79    -20.00    0.000e+00           0   0.000e+00
Pyrite           10.37     0.00    -10.37    0.000e+00           0   0.000e+00
Pyrrhotite      -16.72     8.27     25.00    0.000e+00           0   0.000e+00
pH_fix           -2.00    -2.00      0.00
	 HCl                is reactant       9.787e+00   9.787e+00   3.411e-12
pe_fix           -2.95    -2.95      0.00
	 O2                 is reactant       1.020e+01   1.020e+01  -4.997e-12

-----------------------------Solution composition------------------------------

	Elements           Molality       Moles

	Cl                2.129e-01   2.126e-01
	Fe                4.007e-12   4.000e-12
	N                 1.002e-01   1.000e-01
	Na                1.002e-01   1.000e-01
	S                 1.202e-11   1.200e-11

----------------------------Description of solution----------------------------

                                       pH  =   2.000      Charge balance
                                       pe  =   2.950      Adjusted to redox equilibrium
                        Activity of water  =   0.993
                 Ionic strength (mol/kgw)  =   2.129e-01
                       Mass of water (kg)  =   9.982e-01
                 Total alkalinity (eq/kg)  =  -1.258e-02
                         Temperature (°C)  =  25.00
                  Electrical balance (eq)  =  -2.119e-15
 Percent error, 100*(Cat-|An|)/(Cat+|An|)  =  -0.00
                               Iterations  =   4
                                  Total H  = 1.112250e+02
                                  Total O  = 5.540622e+01

----------------------------Distribution of species----------------------------

                                               Log       Log       Log    mole V
   Species          Molality    Activity  Molality  Activity     Gamma    cm³/mol

   H+              1.258e-02   1.000e-02    -1.900    -2.000    -0.100      0.00
   OH-             1.421e-12   9.973e-13   -11.847   -12.001    -0.154     (0)  
   H2O             5.551e+01   9.928e-01     1.744    -0.003     0.000     18.07
Cl            2.129e-01
   Cl-             2.129e-01   1.478e-01    -0.672    -0.830    -0.159     (0)  
   FeCl+2          1.633e-21   4.759e-22   -20.787   -21.323    -0.536     (0)  
   FeCl2+          4.276e-22   3.142e-22   -21.369   -21.503    -0.134     (0)  
   FeCl3           4.421e-24   4.643e-24   -23.354   -23.333     0.021     (0)  
Fe(2)         4.007e-12
   Fe+2            4.007e-12   1.288e-12   -11.397   -11.890    -0.493     (0)  
   FeOH+           5.502e-20   4.043e-20   -19.259   -19.393    -0.134     (0)  
   FeSO4           3.767e-22   3.956e-22   -21.424   -21.403     0.021     (0)  
   Fe(OH)2         3.253e-29   3.416e-29   -28.488   -28.466     0.021     (0)  
   Fe(OH)3-        1.715e-37   1.260e-37   -36.766   -36.900    -0.134     (0)  
   Fe(HS)2         0.000e+00   0.000e+00   -42.341   -42.320     0.021     (0)  
   Fe(HS)3-        0.000e+00   0.000e+00   -59.844   -59.973    -0.128     (0)  
Fe(3)         3.142e-21
   FeCl+2          1.633e-21   4.759e-22   -20.787   -21.323    -0.536     (0)  
   Fe+3            8.390e-22   1.066e-22   -21.076   -21.972    -0.896     (0)  
   FeCl2+          4.276e-22   3.142e-22   -21.369   -21.503    -0.134     (0)  
   FeOH+2          2.345e-22   6.834e-23   -21.630   -22.165    -0.536     (0)  
   FeCl3           4.421e-24   4.643e-24   -23.354   -23.333     0.021     (0)  
   Fe(OH)2+        3.026e-24   2.247e-24   -23.519   -23.648    -0.129     (0)  
   Fe(OH)3         2.495e-30   2.620e-30   -29.603   -29.582     0.021     (0)  
   FeSO4+          2.085e-30   1.532e-30   -29.681   -29.815    -0.134     (0)  
   Fe(OH)4-        3.504e-36   2.601e-36   -35.455   -35.585    -0.129     (0)  
   Fe(SO4)2-       1.125e-40   0.000e+00   -39.949   -40.077    -0.128     (0)  
   Fe2(OH)2+4      0.000e+00   0.000e+00   -40.845   -42.901    -2.055     (0)  
   Fe3(OH)4+5      0.000e+00   0.000e+00   -61.018   -64.229    -3.211     (0)  
H(0)          1.697e-13
   H2              8.486e-14   8.913e-14   -13.071   -13.050     0.021     (0)  
N(-3)         1.002e-01
   NH4+            1.002e-01   6.763e-02    -0.999    -1.170    -0.171     (0)  
   NH3             3.669e-09   3.854e-09    -8.435    -8.414     0.021     (0)  
   NH4SO4-         2.049e-12   1.505e-12   -11.689   -11.822    -0.134     (0)  
N(3)          0.000e+00
   NO2-            0.000e+00   0.000e+00   -57.855   -57.983    -0.128     (0)  
N(5)          0.000e+00
   NO3-            0.000e+00   0.000e+00   -76.495   -76.656    -0.162     (0)  
Na            1.002e-01
   Na+             1.002e-01   7.417e-02    -0.999    -1.130    -0.131     (0)  
   NaSO4-          8.652e-13   6.422e-13   -12.063   -12.192    -0.129     (0)  
O(0)          0.000e+00
   O2              0.000e+00   0.000e+00   -66.308   -66.286     0.021     (0)  
S(-2)         1.700e-15
   H2S             1.700e-15   1.785e-15   -14.770   -14.748     0.021     (0)  
   HS-             2.910e-20   2.042e-20   -19.536   -19.690    -0.154     (0)  
   S5-2            1.694e-27   5.189e-28   -26.771   -27.285    -0.514     (0)  
   S4-2            9.883e-28   3.027e-28   -27.005   -27.519    -0.514     (0)  
   S6-2            8.768e-28   2.686e-28   -27.057   -27.571    -0.514     (0)  
   S-2             8.465e-31   2.466e-31   -30.072   -30.608    -0.536     (0)  
   S3-2            3.483e-31   1.067e-31   -30.458   -30.972    -0.514     (0)  
   S2-2            1.977e-32   6.054e-33   -31.704   -32.218    -0.514     (0)  
   Fe(HS)2         0.000e+00   0.000e+00   -42.341   -42.320     0.021     (0)  
   Fe(HS)3-        0.000e+00   0.000e+00   -59.844   -59.973    -0.128     (0)  
S(6)          1.202e-11
   SO4-2           6.793e-12   1.728e-12   -11.168   -11.763    -0.595     (0)  
   HSO4-           2.314e-12   1.676e-12   -11.636   -11.776    -0.140     (0)  
   NH4SO4-         2.049e-12   1.505e-12   -11.689   -11.822    -0.134     (0)  
   NaSO4-          8.652e-13   6.422e-13   -12.063   -12.192    -0.129     (0)  
   FeSO4           3.767e-22   3.956e-22   -21.424   -21.403     0.021     (0)  
   FeSO4+          2.085e-30   1.532e-30   -29.681   -29.815    -0.134     (0)  
   Fe(SO4)2-       1.125e-40   0.000e+00   -39.949   -40.077    -0.128     (0)  

------------------------------Saturation indices-------------------------------

  Phase               SI** log IAP   log K(298 K,   1 atm)

  Fe(OH)2.7Cl0.3  -13.79    -16.83   -3.04  Fe(OH)2.7Cl0.3
  Fe2(SO4)3       -82.81    -79.23    3.58  Fe2(SO4)3
  Fe3(OH)8        -60.08    -39.86   20.22  Fe3(OH)8
  Ferrihydrite    -20.87    -15.98    4.89  Fe(OH)3
  FeS(ppt)        -25.67    -29.58   -3.92  FeS
  Goethite        -16.48    -15.98    0.50  FeOOH
  Greigite        -85.53   -100.53  -15.00  Fe3S4
  Halite           -3.54     -1.96    1.58  NaCl
  Hematite        -27.95    -31.95   -4.01  Fe2O3
  Jarosite-H      -67.36    -79.46  -12.10  (H3O)Fe3(SO4)2(OH)6
  Jarosite-Na     -67.39    -78.59  -11.20  NaFe3(SO4)2(OH)6
  Lepidocrocite   -17.35    -15.98    1.37  FeOOH
  Mackinawite     -27.44    -29.58   -2.14  FeS
  Maghemite       -38.34    -31.95    6.39  Fe2O3
  Magnetite       -43.58    -39.85    3.74  Fe3O4
  Melanterite     -21.20    -23.67   -2.47  FeSO4:7H2O
  Mirabilite      -12.94    -14.05   -1.11  Na2SO4:10H2O
  NaCl             18.04     -1.96  -20.00  NaCl
  NaNO3           -57.79    -77.79  -20.00  NaNO3
  O2(g)           -63.33     19.79   83.12  O2
  pe_fix           -2.95     -2.95    0.00  e-
  pH_fix           -2.00     -2.00    0.00  H+
  Pyrite          -24.59    -41.37  -16.78  FeS2
  Pyrrhotite      -26.40     -3.52   22.89  FeS
  Sulfur           -9.68    -11.79   -2.11  S
  Thenardite      -13.84    -14.02   -0.18  Na2SO4

**For a gas, SI = log10(fugacity). Fugacity = pressure * phi / 1 atm.
  For ideal gases, phi = 1.

Reaction step 5.

Using solution 1.	PURE WATER
Using pure phase assemblage 1.	
Using reaction 1.	

Reaction 1.	

	  1.000e-12 moles of the following reaction have been added:

	                 Relative
	Reactant            moles

	Fe1S3                1.00000

	                 Relative
	Element             moles
	Fe                   1.00000
	S                    3.00000

-------------------------------Phase assemblage--------------------------------

                                                      Moles in assemblage
Phase               SI  log IAP  log K(T, P)   Initial       Final       Delta

Greigite          6.48     0.00     -6.48    0.000e+00           0   0.000e+00
Mackinawite     -27.25   -29.39     -2.14    0.000e+00           0   0.000e+00
NaNO3           -57.79   -77.79    -20.00    0.000e+00           0   0.000e+00
Pyrite           10.37     0.00    -10.37    0.000e+00           0   0.000e+00
Pyrrhotite      -16.62     8.37     25.00    0.000e+00           0   0.000e+00
pH_fix           -2.00    -2.00      0.00
	 HCl                is reactant       9.787e+00   9.787e+00   3.411e-12
pe_fix           -2.95    -2.95      0.00
	 O2                 is reactant       1.020e+01   1.020e+01  -5.000e-12

-----------------------------Solution composition------------------------------

	Elements           Molality       Moles

	Cl                2.129e-01   2.126e-01
	Fe                5.009e-12   5.000e-12
	N                 1.002e-01   1.000e-01
	Na                1.002e-01   1.000e-01
	S                 1.503e-11   1.500e-11

----------------------------Description of solution----------------------------

                                       pH  =   2.000      Charge balance
                                       pe  =   2.950      Adjusted to redox equilibrium
                        Activity of water  =   0.993
                 Ionic strength (mol/kgw)  =   2.129e-01
                       Mass of water (kg)  =   9.982e-01
                 Total alkalinity (eq/kg)  =  -1.258e-02
                         Temperature (°C)  =  25.00
                  Electrical balance (eq)  =  -2.125e-15
 Percent error, 100*(Cat-|An|)/(Cat+|An|)  =  -0.00
                               Iterations  =   3
                                  Total H  = 1.112250e+02
                                  Total O  = 5.540622e+01

----------------------------Distribution of species----------------------------

                                               Log       Log       Log    mole V
   Species          Molality    Activity  Molality  Activity     Gamma    cm³/mol

   H+              1.258e-02   1.000e-02    -1.900    -2.000    -0.100      0.00
   OH-             1.421e-12   9.973e-13   -11.847   -12.001    -0.154     (0)  
   H2O             5.551e+01   9.928e-01     1.744    -0.003     0.000     18.07
Cl            2.129e-01
   Cl-             2.129e-01   1.478e-01    -0.672    -0.830    -0.159     (0)  
   FeCl+2          2.041e-21   5.948e-22   -20.690   -21.226    -0.536     (0)  
   FeCl2+          5.345e-22   3.927e-22   -21.272   -21.406    -0.134     (0)  
   FeCl3           5.526e-24   5.804e-24   -23.258   -23.236     0.021     (0)  
Fe(2)         5.009e-12
   Fe+2            5.009e-12   1.610e-12   -11.300   -11.793    -0.493     (0)  
   FeOH+           6.878e-20   5.053e-20   -19.163   -19.296    -0.134     (0)  
   FeSO4           5.886e-22   6.182e-22   -21.230   -21.209     0.021     (0)  
   Fe(OH)2         4.066e-29   4.270e-29   -28.391   -28.370     0.021     (0)  
   Fe(OH)3-        2.144e-37   1.575e-37   -36.669   -36.803    -0.134     (0)  
   Fe(HS)2         0.000e+00   0.000e+00   -42.051   -42.029     0.021     (0)  
   Fe(HS)3-        0.000e+00   0.000e+00   -59.457   -59.585    -0.128     (0)  
Fe(3)         3.927e-21
   FeCl+2          2.041e-21   5.948e-22   -20.690   -21.226    -0.536     (0)  
   Fe+3            1.049e-21   1.333e-22   -20.979   -21.875    -0.896     (0)  
   FeCl2+          5.345e-22   3.927e-22   -21.272   -21.406    -0.134     (0)  
   FeOH+2          2.932e-22   8.542e-23   -21.533   -22.068    -0.536     (0)  
   FeCl3           5.526e-24   5.804e-24   -23.258   -23.236     0.021     (0)  
   Fe(OH)2+        3.783e-24   2.808e-24   -23.422   -23.552    -0.129     (0)  
   FeSO4+          3.258e-30   2.394e-30   -29.487   -29.621    -0.134     (0)  
   Fe(OH)3         3.119e-30   3.275e-30   -29.506   -29.485     0.021     (0)  
   Fe(OH)4-        4.381e-36   3.252e-36   -35.358   -35.488    -0.129     (0)  
   Fe(SO4)2-       2.197e-40   1.635e-40   -39.658   -39.787    -0.128     (0)  
   Fe2(OH)2+4      0.000e+00   0.000e+00   -40.651   -42.707    -2.055     (0)  
   Fe3(OH)4+5      0.000e+00   0.000e+00   -60.727   -63.938    -3.211     (0)  
H(0)          1.697e-13
   H2              8.486e-14   8.913e-14   -13.071   -13.050     0.021     (0)  
N(-3)         1.002e-01
   NH4+            1.002e-01   6.763e-02    -0.999    -1.170    -0.171     (0)  
   NH3             3.669e-09   3.854e-09    -8.435    -8.414     0.021     (0)  
   NH4SO4-         2.561e-12   1.881e-12   -11.592   -11.726    -0.134     (0)  
N(3)          0.000e+00
   NO2-            0.000e+00   0.000e+00   -57.855   -57.983    -0.128     (0)  
N(5)          0.000e+00
   NO3-            0.000e+00   0.000e+00   -76.495   -76.656    -0.162     (0)  
Na            1.002e-01
   Na+             1.002e-01   7.417e-02    -0.999    -1.130    -0.131     (0)  
   NaSO4-          1.081e-12   8.028e-13   -11.966   -12.095    -0.129     (0)  
O(0)          0.000e+00
   O2              0.000e+00   0.000e+00   -66.308   -66.286     0.021     (0)  
S(-2)         2.125e-15
   H2S             2.125e-15   2.232e-15   -14.673   -14.651     0.021     (0)  
   HS-             3.637e-20   2.553e-20   -19.439   -19.593    -0.154     (0)  
   S5-2            2.117e-27   6.486e-28   -26.674   -27.188    -0.514     (0)  
   S4-2            1.235e-27   3.784e-28   -26.908   -27.422    -0.514     (0)  
   S6-2            1.096e-27   3.357e-28   -26.960   -27.474    -0.514     (0)  
   S-2             1.058e-30   3.083e-31   -29.975   -30.511    -0.536     (0)  
   S3-2            4.353e-31   1.333e-31   -30.361   -30.875    -0.514     (0)  
   S2-2            2.471e-32   7.568e-33   -31.607   -32.121    -0.514     (0)  
   Fe(HS)2         0.000e+00   0.000e+00   -42.051   -42.029     0.021     (0)  
   Fe(HS)3-        0.000e+00   0.000e+00   -59.457   -59.585    -0.128     (0)  
S(6)          1.502e-11
   SO4-2           8.491e-12   2.160e-12   -11.071   -11.666    -0.595     (0)  
   HSO4-           2.892e-12   2.096e-12   -11.539   -11.679    -0.140     (0)  
   NH4SO4-         2.561e-12   1.881e-12   -11.592   -11.726    -0.134     (0)  
   NaSO4-          1.081e-12   8.028e-13   -11.966   -12.095    -0.129     (0)  
   FeSO4           5.886e-22   6.182e-22   -21.230   -21.209     0.021     (0)  
   FeSO4+          3.258e-30   2.394e-30   -29.487   -29.621    -0.134     (0)  
   Fe(SO4)2-       2.197e-40   1.635e-40   -39.658   -39.787    -0.128     (0)  

------------------------------Saturation indices-------------------------------

  Phase               SI** log IAP   log K(298 K,   1 atm)

  Fe(OH)2.7Cl0.3  -13.69    -16.73   -3.04  Fe(OH)2.7Cl0.3
  Fe2(SO4)3       -82.33    -78.75    3.58  Fe2(SO4)3
  Fe3(OH)8        -59.79    -39.57   20.22  Fe3(OH)8
  Ferrihydrite    -20.78    -15.88    4.89  Fe(OH)3
  FeS(ppt)        -25.47    -29.39   -3.92  FeS
  Goethite        -16.38    -15.88    0.50  FeOOH
  Greigite        -84.85    -99.85  -15.00  Fe3S4
  Halite           -3.54     -1.96    1.58  NaCl
  Hematite        -27.75    -31.76   -4.01  Fe2O3
  Jarosite-H      -66.88    -78.98  -12.10  (H3O)Fe3(SO4)2(OH)6
  Jarosite-Na     -66.91    -78.11  -11.20  NaFe3(SO4)2(OH)6
  Lepidocrocite   -17.25    -15.88    1.37  FeOOH
  Mackinawite     -27.25    -29.39   -2.14  FeS
  Maghemite       -38.15    -31.76    6.39  Fe2O3
  Magnetite       -43.29    -39.56    3.74  Fe3O4
  Melanterite     -21.01    -23.48   -2.47  FeSO4:7H2O
  Mirabilite      -12.84    -13.96   -1.11  Na2SO4:10H2O
  NaCl             18.04     -1.96  -20.00  NaCl
  NaNO3           -57.79    -77.79  -20.00  NaNO3
  O2(g)           -63.33     19.79   83.12  O2
  pe_fix           -2.95     -2.95    0.00  e-
  pH_fix           -2.00     -2.00    0.00  H+
  Pyrite          -24.30    -41.08  -16.78  FeS2
  Pyrrhotite      -26.21     -3.32   22.89  FeS
  Sulfur           -9.58    -11.69   -2.11  S
  Thenardite      -13.75    -13.93   -0.18  Na2SO4

**For a gas, SI = log10(fugacity). Fugacity = pressure * phi / 1 atm.
  For ideal gases, phi = 1.

Reaction step 6.

Using solution 1.	PURE WATER
Using pure phase assemblage 1.	
Using reaction 1.	

Reaction 1.	

	  1.000e-12 moles of the following reaction have been added:

	                 Relative
	Reactant            moles

	Fe1S3                1.00000

	                 Relative
	Element             moles
	Fe                   1.00000
	S                    3.00000

-------------------------------Phase assemblage--------------------------------

                                                      Moles in assemblage
Phase               SI  log IAP  log K(T, P)   Initial       Final       Delta

Greigite          6.48     0.00     -6.48    0.000e+00           0   0.000e+00
Mackinawite     -27.09   -29.23     -2.14    0.000e+00           0   0.000e+00
NaNO3           -57.79   -77.79    -20.00    0.000e+00           0   0.000e+00
Pyrite           10.37     0.00    -10.37    0.000e+00           0   0.000e+00
Pyrrhotite      -16.55     8.45     25.00    0.000e+00           0   0.000e+00
pH_fix           -2.00    -2.00      0.00
	 HCl                is reactant       9.787e+00   9.787e+00   3.411e-12
pe_fix           -2.95    -2.95      0.00
	 O2                 is reactant       1.020e+01   1.020e+01  -4.999e-12

-----------------------------Solution composition------------------------------

	Elements           Molality       Moles

	Cl                2.129e-01   2.126e-01
	Fe                6.011e-12   6.000e-12
	N                 1.002e-01   1.000e-01
	Na                1.002e-01   1.000e-01
	S                 1.803e-11   1.800e-11

----------------------------Description of solution----------------------------

                                       pH  =   2.000      Charge balance
                                       pe  =   2.950      Adjusted to redox equilibrium
                        Activity of water  =   0.993
                 Ionic strength (mol/kgw)  =   2.129e-01
                       Mass of water (kg)  =   9.982e-01
                 Total alkalinity (eq/kg)  =  -1.258e-02
                         Temperature (°C)  =  25.00
                  Electrical balance (eq)  =  -2.075e-15
 Percent error, 100*(Cat-|An|)/(Cat+|An|)  =  -0.00
                               Iterations  =   3
                                  Total H  = 1.112250e+02
                                  Total O  = 5.540622e+01

----------------------------Distribution of species----------------------------

                                               Log       Log       Log    mole V
   Species          Molality    Activity  Molality  Activity     Gamma    cm³/mol

   H+              1.258e-02   1.000e-02    -1.900    -2.000    -0.100      0.00
   OH-             1.421e-12   9.973e-13   -11.847   -12.001    -0.154     (0)  
   H2O             5.551e+01   9.928e-01     1.744    -0.003     0.000     18.07
Cl            2.129e-01
   Cl-             2.129e-01   1.478e-01    -0.672    -0.830    -0.159     (0)  
   FeCl+2          2.450e-21   7.138e-22   -20.611   -21.146    -0.536     (0)  
   FeCl2+          6.414e-22   4.712e-22   -21.193   -21.327    -0.134     (0)  
   FeCl3           6.632e-24   6.965e-24   -23.178   -23.157     0.021     (0)  
Fe(2)         6.011e-12
   Fe+2            6.011e-12   1.932e-12   -11.221   -11.714    -0.493     (0)  
   FeOH+           8.254e-20   6.064e-20   -19.083   -19.217    -0.134     (0)  
   FeSO4           8.476e-22   8.902e-22   -21.072   -21.051     0.021     (0)  
   Fe(OH)2         4.879e-29   5.124e-29   -28.312   -28.290     0.021     (0)  
   Fe(OH)3-        2.572e-37   1.890e-37   -36.590   -36.724    -0.134     (0)  
   Fe(HS)2         0.000e+00   0.000e+00   -41.813   -41.792     0.021     (0)  
   Fe(HS)3-        0.000e+00   0.000e+00   -59.140   -59.269    -0.128     (0)  
Fe(3)         4.713e-21
   FeCl+2          2.450e-21   7.138e-22   -20.611   -21.146    -0.536     (0)  
   Fe+3            1.258e-21   1.599e-22   -20.900   -21.796    -0.896     (0)  
   FeCl2+          6.414e-22   4.712e-22   -21.193   -21.327    -0.134     (0)  
   FeOH+2          3.518e-22   1.025e-22   -21.454   -21.989    -0.536     (0)  
   FeCl3           6.632e-24   6.965e-24   -23.178   -23.157     0.021     (0)  
   Fe(OH)2+        4.540e-24   3.370e-24   -23.343   -23.472    -0.129     (0)  
   FeSO4+          4.692e-30   3.447e-30   -29.329   -29.463    -0.134     (0)  
   Fe(OH)3         3.742e-30   3.931e-30   -29.427   -29.406     0.021     (0)  
   Fe(OH)4-        5.257e-36   3.902e-36   -35.279   -35.409    -0.129     (0)  
   Fe(SO4)2-       3.797e-40   2.825e-40   -39.421   -39.549    -0.128     (0)  
   Fe2(OH)2+4      0.000e+00   0.000e+00   -40.493   -42.548    -2.055     (0)  
   Fe3(OH)4+5      0.000e+00   0.000e+00   -60.489   -63.701    -3.211     (0)  
H(0)          1.697e-13
   H2              8.486e-14   8.913e-14   -13.071   -13.050     0.021     (0)  
N(-3)         1.002e-01
   NH4+            1.002e-01   6.763e-02    -0.999    -1.170    -0.171     (0)  
   NH3             3.669e-09   3.854e-09    -8.435    -8.414     0.021     (0)  
   NH4SO4-         3.073e-12   2.258e-12   -11.512   -11.646    -0.134     (0)  
N(3)          0.000e+00
   NO2-            0.000e+00   0.000e+00   -57.855   -57.983    -0.128     (0)  
N(5)          0.000e+00
   NO3-            0.000e+00   0.000e+00   -76.495   -76.656    -0.162     (0)  
Na            1.002e-01
   Na+             1.002e-01   7.417e-02    -0.999    -1.130    -0.131     (0)  
   NaSO4-          1.298e-12   9.633e-13   -11.887   -12.016    -0.129     (0)  
O(0)          0.000e+00
   O2              0.000e+00   0.000e+00   -66.308   -66.286     0.021     (0)  
S(-2)         2.550e-15
   H2S             2.550e-15   2.678e-15   -14.593   -14.572     0.021     (0)  
   HS-             4.365e-20   3.063e-20   -19.360   -19.514    -0.154     (0)  
   S5-2            2.541e-27   7.783e-28   -26.595   -27.109    -0.514     (0)  
   S4-2            1.483e-27   4.541e-28   -26.829   -27.343    -0.514     (0)  
   S6-2            1.315e-27   4.029e-28   -26.881   -27.395    -0.514     (0)  
   S-2             1.270e-30   3.700e-31   -29.896   -30.432    -0.536     (0)  
   S3-2            5.224e-31   1.600e-31   -30.282   -30.796    -0.514     (0)  
   S2-2            2.965e-32   9.082e-33   -31.528   -32.042    -0.514     (0)  
   Fe(HS)2         0.000e+00   0.000e+00   -41.813   -41.792     0.021     (0)  
   Fe(HS)3-        0.000e+00   0.000e+00   -59.140   -59.269    -0.128     (0)  
S(6)          1.803e-11
   SO4-2           1.019e-11   2.591e-12   -10.992   -11.586    -0.595     (0)  
   HSO4-           3.471e-12   2.515e-12   -11.460   -11.600    -0.140     (0)  
   NH4SO4-         3.073e-12   2.258e-12   -11.512   -11.646    -0.134     (0)  
   NaSO4-          1.298e-12   9.633e-13   -11.887   -12.016    -0.129     (0)  
   FeSO4           8.476e-22   8.902e-22   -21.072   -21.051     0.021     (0)  
   FeSO4+          4.692e-30   3.447e-30   -29.329   -29.463    -0.134     (0)  
   Fe(SO4)2-       3.797e-40   2.825e-40   -39.421   -39.549    -0.128     (0)  

------------------------------Saturation indices-------------------------------

  Phase               SI** log IAP   log K(298 K,   1 atm)

  Fe(OH)2.7Cl0.3  -13.61    -16.65   -3.04  Fe(OH)2.7Cl0.3
  Fe2(SO4)3       -81.93    -78.35    3.58  Fe2(SO4)3
  Fe3(OH)8        -59.55    -39.33   20.22  Fe3(OH)8
  Ferrihydrite    -20.70    -15.81    4.89  Fe(OH)3
  FeS(ppt)        -25.31    -29.23   -3.92  FeS
  Goethite        -16.30    -15.80    0.50  FeOOH
  Greigite        -84.30    -99.30  -15.00  Fe3S4
  Halite           -3.54     -1.96    1.58  NaCl
  Hematite        -27.59    -31.60   -4.01  Fe2O3
  Jarosite-H      -66.48    -78.58  -12.10  (H3O)Fe3(SO4)2(OH)6
  Jarosite-Na     -66.51    -77.71  -11.20  NaFe3(SO4)2(OH)6
  Lepidocrocite   -17.17    -15.80    1.37  FeOOH
  Mackinawite     -27.09    -29.23   -2.14  FeS
  Maghemite       -37.99    -31.60    6.39  Fe2O3
  Magnetite       -43.06    -39.32    3.74  Fe3O4
  Melanterite     -20.85    -23.32   -2.47  FeSO4:7H2O
  Mirabilite      -12.76    -13.88   -1.11  Na2SO4:10H2O
  NaCl             18.04     -1.96  -20.00  NaCl
  NaNO3           -57.79    -77.79  -20.00  NaNO3
  O2(g)           -63.33     19.79   83.12  O2
  pe_fix           -2.95     -2.95    0.00  e-
  pH_fix           -2.00     -2.00    0.00  H+
  Pyrite          -24.06    -40.84  -16.78  FeS2
  Pyrrhotite      -26.05     -3.16   22.89  FeS
  Sulfur           -9.50    -11.61   -2.11  S
  Thenardite      -13.67    -13.85   -0.18  Na2SO4

**For a gas, SI = log10(fugacity). Fugacity = pressure * phi / 1 atm.
  For ideal gases, phi = 1.

Reaction step 7.

Using solution 1.	PURE WATER
Using pure phase assemblage 1.	
Using reaction 1.	

Reaction 1.	

	  1.000e-12 moles of the following reaction have been added:

	                 Relative
	Reactant            moles

	Fe1S3                1.00000

	                 Relative
	Element             moles
	Fe                   1.00000
	S                    3.00000

-------------------------------Phase assemblage--------------------------------

                                                      Moles in assemblage
Phase               SI  log IAP  log K(T, P)   Initial       Final       Delta

Greigite          6.48     0.00     -6.48    0.000e+00           0   0.000e+00
Mackinawite     -26.96   -29.09     -2.14    0.000e+00           0   0.000e+00
NaNO3           -57.79   -77.79    -20.00    0.000e+00           0   0.000e+00
Pyrite           10.37     0.00    -10.37    0.000e+00           0   0.000e+00
Pyrrhotite      -16.48     8.52     25.00    0.000e+00           0   0.000e+00
pH_fix           -2.00    -2.00      0.00
	 HCl                is reactant       9.787e+00   9.787e+00   3.411e-12
pe_fix           -2.95    -2.95      0.00
	 O2                 is reactant       1.020e+01   1.020e+01  -5.002e-12

-----------------------------Solution composition------------------------------

	Elements           Molality       Moles

	Cl                2.129e-01   2.126e-01
	Fe                7.013e-12   7.000e-12
	N                 1.002e-01   1.000e-01
	Na                1.002e-01   1.000e-01
	S                 2.104e-11   2.100e-11

----------------------------Description of solution----------------------------

                                       pH  =   2.000      Charge balance
                                       pe  =   2.950      Adjusted to redox equilibrium
                        Activity of water  =   0.993
                 Ionic strength (mol/kgw)  =   2.129e-01
                       Mass of water (kg)  =   9.982e-01
                 Total alkalinity (eq/kg)  =  -1.258e-02
                         Temperature (°C)  =  25.00
                  Electrical balance (eq)  =  -2.080e-15
 Percent error, 100*(Cat-|An|)/(Cat+|An|)  =  -0.00
                               Iterations  =   3
                                  Total H  = 1.112250e+02
                                  Total O  = 5.540622e+01

----------------------------Distribution of species----------------------------

                                               Log       Log       Log    mole V
   Species          Molality    Activity  Molality  Activity     Gamma    cm³/mol

   H+              1.258e-02   1.000e-02    -1.900    -2.000    -0.100      0.00
   OH-             1.421e-12   9.973e-13   -11.847   -12.001    -0.154     (0)  
   H2O             5.551e+01   9.928e-01     1.744    -0.003     0.000     18.07
Cl            2.129e-01
   Cl-             2.129e-01   1.478e-01    -0.672    -0.830    -0.159     (0)  
   FeCl+2          2.858e-21   8.328e-22   -20.544   -21.079    -0.536     (0)  
   FeCl2+          7.483e-22   5.498e-22   -21.126   -21.260    -0.134     (0)  
   FeCl3           7.737e-24   8.126e-24   -23.111   -23.090     0.021     (0)  
Fe(2)         7.013e-12
   Fe+2            7.013e-12   2.254e-12   -11.154   -11.647    -0.493     (0)  
   FeOH+           9.629e-20   7.075e-20   -19.016   -19.150    -0.134     (0)  
   FeSO4           1.154e-21   1.212e-21   -20.938   -20.917     0.021     (0)  
   Fe(OH)2         5.692e-29   5.978e-29   -28.245   -28.223     0.021     (0)  
   Fe(OH)3-        3.001e-37   2.205e-37   -36.523   -36.657    -0.134     (0)  
   Fe(HS)2         0.000e+00   0.000e+00   -41.612   -41.591     0.021     (0)  
   Fe(HS)3-        0.000e+00   0.000e+00   -58.872   -59.001    -0.128     (0)  
Fe(3)         5.498e-21
   FeCl+2          2.858e-21   8.328e-22   -20.544   -21.079    -0.536     (0)  
   Fe+3            1.468e-21   1.866e-22   -20.833   -21.729    -0.896     (0)  
   FeCl2+          7.483e-22   5.498e-22   -21.126   -21.260    -0.134     (0)  
   FeOH+2          4.104e-22   1.196e-22   -21.387   -21.922    -0.536     (0)  
   FeCl3           7.737e-24   8.126e-24   -23.111   -23.090     0.021     (0)  
   Fe(OH)2+        5.296e-24   3.931e-24   -23.276   -23.405    -0.129     (0)  
   FeSO4+          6.386e-30   4.692e-30   -29.195   -29.329    -0.134     (0)  
   Fe(OH)3         4.366e-30   4.586e-30   -29.360   -29.339     0.021     (0)  
   Fe(OH)4-        6.133e-36   4.552e-36   -35.212   -35.342    -0.129     (0)  
   Fe(SO4)2-       6.030e-40   4.486e-40   -39.220   -39.348    -0.128     (0)  
   Fe2(OH)2+4      0.000e+00   0.000e+00   -40.359   -42.415    -2.055     (0)  
   Fe3(OH)4+5      0.000e+00   0.000e+00   -60.289   -63.500    -3.211     (0)  
H(0)          1.697e-13
   H2              8.486e-14   8.913e-14   -13.071   -13.050     0.021     (0)  
N(-3)         1.002e-01
   NH4+            1.002e-01   6.763e-02    -0.999    -1.170    -0.171     (0)  
   NH3             3.669e-09   3.854e-09    -8.435    -8.414     0.021     (0)  
   NH4SO4-         3.585e-12   2.634e-12   -11.446   -11.579    -0.134     (0)  
N(3)          0.000e+00
   NO2-            0.000e+00   0.000e+00   -57.855   -57.983    -0.128     (0)  
N(5)          0.000e+00
   NO3-            0.000e+00   0.000e+00   -76.495   -76.656    -0.162     (0)  
Na            1.002e-01
   Na+             1.002e-01   7.417e-02    -0.999    -1.130    -0.131     (0)  
   NaSO4-          1.514e-12   1.124e-12   -11.820   -11.949    -0.129     (0)  
O(0)          0.000e+00
   O2              0.000e+00   0.000e+00   -66.308   -66.286     0.021     (0)  
S(-2)         2.975e-15
   H2S             2.975e-15   3.125e-15   -14.527   -14.505     0.021     (0)  
   HS-             5.092e-20   3.574e-20   -19.293   -19.447    -0.154     (0)  
   S5-2            2.964e-27   9.081e-28   -26.528   -27.042    -0.514     (0)  
   S4-2            1.730e-27   5.298e-28   -26.762   -27.276    -0.514     (0)  
   S6-2            1.534e-27   4.700e-28   -26.814   -27.328    -0.514     (0)  
   S-2             1.481e-30   4.316e-31   -29.829   -30.365    -0.536     (0)  
   S3-2            6.095e-31   1.867e-31   -30.215   -30.729    -0.514     (0)  
   S2-2            3.459e-32   1.060e-32   -31.461   -31.975    -0.514     (0)  
   Fe(HS)2         0.000e+00   0.000e+00   -41.612   -41.591     0.021     (0)  
   Fe(HS)3-        0.000e+00   0.000e+00   -58.872   -59.001    -0.128     (0)  
S(6)          2.103e-11
   SO4-2           1.189e-11   3.023e-12   -10.925   -11.520    -0.595     (0)  
   HSO4-           4.049e-12   2.934e-12   -11.393   -11.533    -0.140     (0)  
   NH4SO4-         3.585e-12   2.634e-12   -11.446   -11.579    -0.134     (0)  
   NaSO4-          1.514e-12   1.124e-12   -11.820   -11.949    -0.129     (0)  
   FeSO4           1.154e-21   1.212e-21   -20.938   -20.917     0.021     (0)  
   FeSO4+          6.386e-30   4.692e-30   -29.195   -29.329    -0.134     (0)  
   Fe(SO4)2-       6.030e-40   4.486e-40   -39.220   -39.348    -0.128     (0)  

------------------------------Saturation indices-------------------------------

  Phase               SI** log IAP   log K(298 K,   1 atm)

  Fe(OH)2.7Cl0.3  -13.55    -16.59   -3.04  Fe(OH)2.7Cl0.3
  Fe2(SO4)3       -81.60    -78.02    3.58  Fe2(SO4)3
  Fe3(OH)8        -59.35    -39.13   20.22  Fe3(OH)8
  Ferrihydrite    -20.63    -15.74    4.89  Fe(OH)3
  FeS(ppt)        -25.18    -29.09   -3.92  FeS
  Goethite        -16.24    -15.74    0.50  FeOOH
  Greigite        -83.83    -98.83  -15.00  Fe3S4
  Halite           -3.54     -1.96    1.58  NaCl
  Hematite        -27.46    -31.47   -4.01  Fe2O3
  Jarosite-H      -66.15    -78.25  -12.10  (H3O)Fe3(SO4)2(OH)6
  Jarosite-Na     -66.18    -77.38  -11.20  NaFe3(SO4)2(OH)6
  Lepidocrocite   -17.11    -15.74    1.37  FeOOH
  Mackinawite     -26.96    -29.09   -2.14  FeS
  Maghemite       -37.85    -31.47    6.39  Fe2O3
  Magnetite       -42.86    -39.12    3.74  Fe3O4
  Melanterite     -20.72    -23.19   -2.47  FeSO4:7H2O
  Mirabilite      -12.70    -13.81   -1.11  Na2SO4:10H2O
  NaCl             18.04     -1.96  -20.00  NaCl
  NaNO3           -57.79    -77.79  -20.00  NaNO3
  O2(g)           -63.33     19.79   83.12  O2
  pe_fix           -2.95     -2.95    0.00  e-
  pH_fix           -2.00     -2.00    0.00  H+
  Pyrite          -23.86    -40.64  -16.78  FeS2
  Pyrrhotite      -25.92     -3.03   22.89  FeS
  Sulfur           -9.44    -11.55   -2.11  S
  Thenardite      -13.60    -13.78   -0.18  Na2SO4

**For a gas, SI = log10(fugacity). Fugacity = pressure * phi / 1 atm.
  For ideal gases, phi = 1.

Reaction step 8.

Using solution 1.	PURE WATER
Using pure phase assemblage 1.	
Using reaction 1.	

Reaction 1.	

	  1.000e-12 moles of the following reaction have been added:

	                 Relative
	Reactant            moles

	Fe1S3                1.00000

	                 Relative
	Element             moles
	Fe                   1.00000
	S                    3.00000

-------------------------------Phase assemblage--------------------------------

                                                      Moles in assemblage
Phase               SI  log IAP  log K(T, P)   Initial       Final       Delta

Greigite          6.48     0.00     -6.48    0.000e+00           0   0.000e+00
Mackinawite     -26.84   -28.98     -2.14    0.000e+00           0   0.000e+00
NaNO3           -57.79   -77.79    -20.00    0.000e+00           0   0.000e+00
Pyrite           10.37     0.00    -10.37    0.000e+00           0   0.000e+00
Pyrrhotite      -16.42     8.57     25.00    0.000e+00           0   0.000e+00
pH_fix           -2.00    -2.00      0.00
	 HCl                is reactant       9.787e+00   9.787e+00   3.411e-12
pe_fix           -2.95    -2.95      0.00
	 O2                 is reactant       1.020e+01   1.020e+01  -4.992e-12

-----------------------------Solution composition------------------------------

	Elements           Molality       Moles

	Cl                2.129e-01   2.126e-01
	Fe                8.014e-12   8.000e-12
	N                 1.002e-01   1.000e-01
	Na                1.002e-01   1.000e-01
	S                 2.404e-11   2.400e-11

----------------------------Description of solution----------------------------

                                       pH  =   2.000      Charge balance
                                       pe  =   2.950      Adjusted to redox equilibrium
                        Activity of water  =   0.993
                 Ionic strength (mol/kgw)  =   2.129e-01
                       Mass of water (kg)  =   9.982e-01
                 Total alkalinity (eq/kg)  =  -1.258e-02
                         Temperature (°C)  =  25.00
                  Electrical balance (eq)  =  -2.057e-15
 Percent error, 100*(Cat-|An|)/(Cat+|An|)  =  -0.00
                               Iterations  =   3
                                  Total H  = 1.112250e+02
                                  Total O  = 5.540622e+01

----------------------------Distribution of species----------------------------

                                               Log       Log       Log    mole V
   Species          Molality    Activity  Molality  Activity     Gamma    cm³/mol

   H+              1.258e-02   1.000e-02    -1.900    -2.000    -0.100      0.00
   OH-             1.421e-12   9.973e-13   -11.847   -12.001    -0.154     (0)  
   H2O             5.551e+01   9.928e-01     1.744    -0.003     0.000     18.07
Cl            2.129e-01
   Cl-             2.129e-01   1.478e-01    -0.672    -0.830    -0.159     (0)  
   FeCl+2          3.266e-21   9.518e-22   -20.486   -21.021    -0.536     (0)  
   FeCl2+          8.552e-22   6.283e-22   -21.068   -21.202    -0.134     (0)  
   FeCl3           8.842e-24   9.286e-24   -23.053   -23.032     0.021     (0)  
Fe(2)         8.014e-12
   Fe+2            8.014e-12   2.575e-12   -11.096   -11.589    -0.493     (0)  
   FeOH+           1.100e-19   8.085e-20   -18.958   -19.092    -0.134     (0)  
   FeSO4           1.507e-21   1.582e-21   -20.822   -20.801     0.021     (0)  
   Fe(OH)2         6.505e-29   6.832e-29   -28.187   -28.165     0.021     (0)  
   Fe(OH)3-        3.430e-37   2.520e-37   -36.465   -36.599    -0.134     (0)  
   Fe(HS)2         0.000e+00   0.000e+00   -41.438   -41.417     0.021     (0)  
   Fe(HS)3-        0.000e+00   0.000e+00   -58.640   -58.769    -0.128     (0)  
Fe(3)         6.283e-21
   FeCl+2          3.266e-21   9.518e-22   -20.486   -21.021    -0.536     (0)  
   Fe+3            1.678e-21   2.132e-22   -20.775   -21.671    -0.896     (0)  
   FeCl2+          8.552e-22   6.283e-22   -21.068   -21.202    -0.134     (0)  
   FeOH+2          4.691e-22   1.367e-22   -21.329   -21.864    -0.536     (0)  
   FeCl3           8.842e-24   9.286e-24   -23.053   -23.032     0.021     (0)  
   Fe(OH)2+        6.053e-24   4.493e-24   -23.218   -23.347    -0.129     (0)  
   FeSO4+          8.341e-30   6.128e-30   -29.079   -29.213    -0.134     (0)  
   Fe(OH)3         4.990e-30   5.241e-30   -29.302   -29.281     0.021     (0)  
   Fe(OH)4-        7.009e-36   5.203e-36   -35.154   -35.284    -0.129     (0)  
   Fe(SO4)2-       9.001e-40   6.696e-40   -39.046   -39.174    -0.128     (0)  
   Fe2(OH)2+4      0.000e+00   0.000e+00   -40.243   -42.299    -2.055     (0)  
   Fe3(OH)4+5      0.000e+00   0.000e+00   -60.115   -63.326    -3.211     (0)  
H(0)          1.697e-13
   H2              8.486e-14   8.913e-14   -13.071   -13.050     0.021     (0)  
N(-3)         1.002e-01
   NH4+            1.002e-01   6.763e-02    -0.999    -1.170    -0.171     (0)  
   NH3             3.669e-09   3.854e-09    -8.435    -8.414     0.021     (0)  
   NH4SO4-         4.097e-12   3.010e-12   -11.388   -11.521    -0.134     (0)  
N(3)          0.000e+00
   NO2-            0.000e+00   0.000e+00   -57.855   -57.983    -0.128     (0)  
N(5)          0.000e+00
   NO3-            0.000e+00   0.000e+00   -76.495   -76.656    -0.162     (0)  
Na            1.002e-01
   Na+             1.002e-01   7.417e-02    -0.999    -1.130    -0.131     (0)  
   NaSO4-          1.730e-12   1.284e-12   -11.762   -11.891    -0.129     (0)  
O(0)          0.000e+00
   O2              0.000e+00   0.000e+00   -66.308   -66.286     0.021     (0)  
S(-2)         3.400e-15
   H2S             3.400e-15   3.571e-15   -14.469   -14.447     0.021     (0)  
   HS-             5.819e-20   4.084e-20   -19.235   -19.389    -0.154     (0)  
   S5-2            3.388e-27   1.038e-27   -26.470   -26.984    -0.514     (0)  
   S4-2            1.977e-27   6.055e-28   -26.704   -27.218    -0.514     (0)  
   S6-2            1.754e-27   5.372e-28   -26.756   -27.270    -0.514     (0)  
   S-2             1.693e-30   4.933e-31   -29.771   -30.307    -0.536     (0)  
   S3-2            6.965e-31   2.134e-31   -30.157   -30.671    -0.514     (0)  
   S2-2            3.953e-32   1.211e-32   -31.403   -31.917    -0.514     (0)  
   Fe(HS)2         0.000e+00   0.000e+00   -41.438   -41.417     0.021     (0)  
   Fe(HS)3-        0.000e+00   0.000e+00   -58.640   -58.769    -0.128     (0)  
S(6)          2.404e-11
   SO4-2           1.359e-11   3.455e-12   -10.867   -11.462    -0.595     (0)  
   HSO4-           4.627e-12   3.353e-12   -11.335   -11.475    -0.140     (0)  
   NH4SO4-         4.097e-12   3.010e-12   -11.388   -11.521    -0.134     (0)  
   NaSO4-          1.730e-12   1.284e-12   -11.762   -11.891    -0.129     (0)  
   FeSO4           1.507e-21   1.582e-21   -20.822   -20.801     0.021     (0)  
   FeSO4+          8.341e-30   6.128e-30   -29.079   -29.213    -0.134     (0)  
   Fe(SO4)2-       9.001e-40   6.696e-40   -39.046   -39.174    -0.128     (0)  

------------------------------Saturation indices-------------------------------

  Phase               SI** log IAP   log K(298 K,   1 atm)

  Fe(OH)2.7Cl0.3  -13.49    -16.53   -3.04  Fe(OH)2.7Cl0.3
  Fe2(SO4)3       -81.31    -77.73    3.58  Fe2(SO4)3
  Fe3(OH)8        -59.18    -38.96   20.22  Fe3(OH)8
  Ferrihydrite    -20.57    -15.68    4.89  Fe(OH)3
  FeS(ppt)        -25.06    -28.98   -3.92  FeS
  Goethite        -16.18    -15.68    0.50  FeOOH
  Greigite        -83.43    -98.42  -15.00  Fe3S4
  Halite           -3.54     -1.96    1.58  NaCl
  Hematite        -27.34    -31.35   -4.01  Fe2O3
  Jarosite-H      -65.86    -77.96  -12.10  (H3O)Fe3(SO4)2(OH)6
  Jarosite-Na     -65.89    -77.09  -11.20  NaFe3(SO4)2(OH)6
  Lepidocrocite   -17.05    -15.68    1.37  FeOOH
  Mackinawite     -26.84    -28.98   -2.14  FeS
  Maghemite       -37.74    -31.35    6.39  Fe2O3
  Magnetite       -42.68    -38.94    3.74  Fe3O4
  Melanterite     -20.60    -23.07   -2.47  FeSO4:7H2O
  Mirabilite      -12.64    -13.75   -1.11  Na2SO4:10H2O
  NaCl             18.04     -1.96  -20.00  NaCl
  NaNO3           -57.79    -77.79  -20.00  NaNO3
  O2(g)           -63.33     19.79   83.12  O2
  pe_fix           -2.95     -2.95    0.00  e-
  pH_fix           -2.00     -2.00    0.00  H+
  Pyrite          -23.69    -40.47  -16.78  FeS2
  Pyrrhotite      -25.80     -2.91   22.89  FeS
[...]
   NaSO4-          8.324e-03   6.046e-03    -2.080    -2.219    -0.139     (0)  
   HSO4-           2.031e-08   1.434e-08    -7.692    -7.843    -0.151     (0)  
   FeSO4           1.237e-16   1.319e-16   -15.907   -15.880     0.028     (0)  
   FeSO4+          2.199e-32   1.578e-32   -31.658   -31.802    -0.144     (0)  
   Fe(SO4)2-       1.003e-32   7.377e-33   -31.999   -32.132    -0.134     (0)  

------------------------------Saturation indices-------------------------------

  Phase               SI** log IAP   log K(298 K,   1 atm)

  Fe(OH)2.7Cl0.3   -9.69    -12.73   -3.04  Fe(OH)2.7Cl0.3
  Fe2(SO4)3       -76.85    -73.27    3.58  Fe2(SO4)3
  Fe3(OH)8        -40.33    -20.10   20.22  Fe3(OH)8
  Ferrihydrite    -14.79     -9.90    4.89  Fe(OH)3
  FeS(ppt)         -8.06    -11.98   -3.92  FeS
  Goethite        -10.40     -9.90    0.50  FeOOH
  Greigite        -25.74    -40.74  -15.00  Fe3S4
  Halite           -4.10     -2.52    1.58  NaCl
  Hematite        -15.78    -19.79   -4.01  Fe2O3
  Jarosite-H      -53.25    -65.35  -12.10  (H3O)Fe3(SO4)2(OH)6
  Jarosite-Na     -47.24    -58.44  -11.20  NaFe3(SO4)2(OH)6
  Lepidocrocite   -11.27     -9.90    1.37  FeOOH
  Mackinawite      -9.84    -11.98   -2.14  FeS
  Maghemite       -26.18    -19.79    6.39  Fe2O3
  Magnetite       -23.83    -20.09    3.74  Fe3O4
  Melanterite     -15.68    -18.15   -2.47  FeSO4:7H2O
  Mirabilite       -2.92     -4.03   -1.11  Na2SO4:10H2O
  NaCl             17.48     -2.52  -20.00  NaCl
  NaNO3           -57.84    -77.84  -20.00  NaNO3
  O2(g)           -69.37     13.75   83.12  O2
  pe_fix            4.56      4.56    0.00  e-
  pH_fix           -8.00     -8.00    0.00  H+
  Pyrite           -0.00    -16.78  -16.78  FeS2
  Pyrrhotite       -8.80     14.08   22.89  FeS
  Sulfur           -2.69     -4.80   -2.11  S
  Thenardite       -3.83     -4.01   -0.18  Na2SO4

**For a gas, SI = log10(fugacity). Fugacity = pressure * phi / 1 atm.
  For ideal gases, phi = 1.

Reaction step 109.

Using solution 1.	PURE WATER
Using pure phase assemblage 1.	
Using reaction 1.	

Reaction 1.	

	  1.000e-02 moles of the following reaction have been added:

	                 Relative
	Reactant            moles

	Fe1S3                1.00000

	                 Relative
	Element             moles
	Fe                   1.00000
	S                    3.00000

-------------------------------Phase assemblage--------------------------------

                                                      Moles in assemblage
Phase               SI  log IAP  log K(T, P)   Initial       Final       Delta

Greigite          6.48     0.00     -6.48    0.000e+00           0   0.000e+00
Mackinawite      -9.89   -12.02     -2.14    0.000e+00           0   0.000e+00
NaNO3           -57.85   -77.85    -20.00    0.000e+00           0   0.000e+00
Pyrite           10.37     0.00    -10.37    9.111e-02   1.011e-01   1.000e-02
Pyrrhotite       -6.20    18.80     25.00    0.000e+00           0   0.000e+00
pH_fix           -8.00    -8.00      0.00
	 HCl                is reactant       9.945e+00   9.965e+00   1.987e-02
pe_fix            4.56     4.56      0.00
	 O2                 is reactant       1.010e+01   1.009e+01  -1.490e-02

-----------------------------Solution composition------------------------------

	Elements           Molality       Moles

	Cl                3.524e-02   3.510e-02
	Fe                2.152e-15   2.144e-15
	N                 1.205e-01   1.200e-01
	Na                1.205e-01   1.200e-01
	S                 1.015e-01   1.011e-01

----------------------------Description of solution----------------------------

                                       pH  =   8.000      Charge balance
                                       pe  =  -4.560      Adjusted to redox equilibrium
                        Activity of water  =   0.994
                 Ionic strength (mol/kgw)  =   2.828e-01
                       Mass of water (kg)  =   9.960e-01
                 Total alkalinity (eq/kg)  =   3.827e-03
                         Temperature (°C)  =  25.00
                  Electrical balance (eq)  =  -5.542e-12
 Percent error, 100*(Cat-|An|)/(Cat+|An|)  =  -0.00
                               Iterations  =   6
                                  Total H  = 1.110475e+02
                                  Total O  = 5.568745e+01

----------------------------Distribution of species----------------------------

                                               Log       Log       Log    mole V
   Species          Molality    Activity  Molality  Activity     Gamma    cm³/mol

   OH-             1.471e-06   9.986e-07    -5.832    -6.001    -0.168     (0)  
   H+              1.275e-08   1.000e-08    -7.895    -8.000    -0.105      0.00
   H2O             5.551e+01   9.941e-01     1.744    -0.003     0.000     18.07
Cl            3.524e-02
   Cl-             3.524e-02   2.362e-02    -1.453    -1.627    -0.174     (0)  
   FeCl+2          2.841e-34   7.489e-35   -33.546   -34.126    -0.579     (0)  
   FeCl2+          1.103e-35   7.903e-36   -34.957   -35.102    -0.145     (0)  
   FeCl3           1.749e-38   1.867e-38   -37.757   -37.729     0.028     (0)  
Fe(2)         2.152e-15
   Fe(HS)2         1.833e-15   1.956e-15   -14.737   -14.709     0.028     (0)  
   Fe+2            1.389e-16   4.103e-17   -15.857   -16.387    -0.530     (0)  
   FeSO4           1.118e-16   1.194e-16   -15.951   -15.923     0.028     (0)  
   Fe(HS)3-        6.703e-17   4.925e-17   -16.174   -16.308    -0.134     (0)  
   FeOH+           1.800e-18   1.290e-18   -17.745   -17.889    -0.145     (0)  
   Fe(OH)2         1.022e-21   1.091e-21   -20.990   -20.962     0.028     (0)  
   Fe(OH)3-        5.625e-24   4.030e-24   -23.250   -23.395    -0.145     (0)  
Fe(3)         9.036e-24
   Fe(OH)4-        3.551e-24   2.575e-24   -23.450   -23.589    -0.140     (0)  
   Fe(OH)2+        3.058e-24   2.218e-24   -23.515   -23.654    -0.140     (0)  
   Fe(OH)3         2.427e-24   2.590e-24   -23.615   -23.587     0.028     (0)  
   FeOH+2          2.556e-28   6.738e-29   -27.592   -28.171    -0.579     (0)  
   FeSO4+          1.994e-32   1.428e-32   -31.700   -31.845    -0.145     (0)  
   Fe(SO4)2-       1.006e-32   7.390e-33   -31.998   -32.131    -0.134     (0)  
   Fe+3            9.335e-34   1.050e-34   -33.030   -33.979    -0.949     (0)  
   FeCl+2          2.841e-34   7.489e-35   -33.546   -34.126    -0.579     (0)  
   FeCl2+          1.103e-35   7.903e-36   -34.957   -35.102    -0.145     (0)  
   FeCl3           1.749e-38   1.867e-38   -37.757   -37.729     0.028     (0)  
   Fe2(OH)2+4      0.000e+00   0.000e+00   -52.772   -54.913    -2.141     (0)  
   Fe3(OH)4+5      0.000e+00   0.000e+00   -72.902   -76.247    -3.345     (0)  
H(0)          1.749e-10
   H2              8.744e-11   9.333e-11   -10.058   -10.030     0.028     (0)  
N(-3)         1.205e-01
   NH4+            9.835e-02   6.368e-02    -1.007    -1.196    -0.189     (0)  
   NH4SO4-         1.873e-02   1.342e-02    -1.727    -1.872    -0.145     (0)  
   NH3             3.400e-03   3.629e-03    -2.469    -2.440     0.028     (0)  
N(3)          0.000e+00
   NO2-            0.000e+00   0.000e+00   -54.934   -55.068    -0.134     (0)  
N(5)          0.000e+00
   NO3-            0.000e+00   0.000e+00   -76.583   -76.761    -0.178     (0)  
Na            1.205e-01
   Na+             1.113e-01   8.094e-02    -0.953    -1.092    -0.138     (0)  
   NaSO4-          9.151e-03   6.636e-03    -2.039    -2.178    -0.140     (0)  
O(0)          0.000e+00
   O2              0.000e+00   0.000e+00   -72.353   -72.325     0.028     (0)  
S(-2)         5.701e-04
   HS-             3.407e-04   2.313e-04    -3.468    -3.636    -0.168     (0)  
   S5-2            2.015e-05   5.876e-06    -4.696    -5.231    -0.535     (0)  
   H2S             1.895e-05   2.022e-05    -4.722    -4.694     0.028     (0)  
   S4-2            1.176e-05   3.429e-06    -4.930    -5.465    -0.535     (0)  
   S6-2            1.043e-05   3.042e-06    -4.982    -5.517    -0.535     (0)  
   S-2             1.060e-08   2.793e-09    -7.975    -8.554    -0.579     (0)  
   S3-2            4.143e-09   1.208e-09    -8.383    -8.918    -0.535     (0)  
   S2-2            2.351e-10   6.857e-11    -9.629   -10.164    -0.535     (0)  
   Fe(HS)2         1.833e-15   1.956e-15   -14.737   -14.709     0.028     (0)  
   Fe(HS)3-        6.703e-17   4.925e-17   -16.174   -16.308    -0.134     (0)  
S(6)          1.009e-01
   SO4-2           7.306e-02   1.636e-02    -1.136    -1.786    -0.650     (0)  
   NH4SO4-         1.873e-02   1.342e-02    -1.727    -1.872    -0.145     (0)  
   NaSO4-          9.151e-03   6.636e-03    -2.039    -2.178    -0.140     (0)  
   HSO4-           2.252e-08   1.587e-08    -7.647    -7.799    -0.152     (0)  
   FeSO4           1.118e-16   1.194e-16   -15.951   -15.923     0.028     (0)  
   FeSO4+          1.994e-32   1.428e-32   -31.700   -31.845    -0.145     (0)  
   Fe(SO4)2-       1.006e-32   7.390e-33   -31.998   -32.131    -0.134     (0)  

------------------------------Saturation indices-------------------------------

  Phase               SI** log IAP   log K(298 K,   1 atm)

  Fe(OH)2.7Cl0.3   -9.83    -12.87   -3.04  Fe(OH)2.7Cl0.3
  Fe2(SO4)3       -76.90    -73.32    3.58  Fe2(SO4)3
  Fe3(OH)8        -40.59    -20.37   20.22  Fe3(OH)8
  Ferrihydrite    -14.88     -9.99    4.89  Fe(OH)3
  FeS(ppt)         -8.11    -12.02   -3.92  FeS
  Goethite        -10.48     -9.98    0.50  FeOOH
  Greigite        -25.83    -40.82  -15.00  Fe3S4
  Halite           -4.30     -2.72    1.58  NaCl
  Hematite        -15.96    -19.97   -4.01  Fe2O3
  Jarosite-H      -53.43    -65.53  -12.10  (H3O)Fe3(SO4)2(OH)6
  Jarosite-Na     -47.42    -58.62  -11.20  NaFe3(SO4)2(OH)6
  Lepidocrocite   -11.36     -9.98    1.37  FeOOH
  Mackinawite      -9.89    -12.02   -2.14  FeS
  Maghemite       -26.35    -19.97    6.39  Fe2O3
  Magnetite       -24.09    -20.36    3.74  Fe3O4
  Melanterite     -15.72    -18.19   -2.47  FeSO4:7H2O
  Mirabilite       -2.88     -4.00   -1.11  Na2SO4:10H2O
  NaCl             17.28     -2.72  -20.00  NaCl
  NaNO3           -57.85    -77.85  -20.00  NaNO3
  O2(g)           -69.37     13.75   83.12  O2
  pe_fix            4.56      4.56    0.00  e-
  pH_fix           -8.00     -8.00    0.00  H+
  Pyrite           -0.00    -16.78  -16.78  FeS2
  Pyrrhotite       -8.84     14.04   22.89  FeS
  Sulfur           -2.65     -4.76   -2.11  S
  Thenardite       -3.79     -3.97   -0.18  Na2SO4

**For a gas, SI = log10(fugacity). Fugacity = pressure * phi / 1 atm.
  For ideal gases, phi = 1.

Reaction step 110.

Using solution 1.	PURE WATER
Using pure phase assemblage 1.	
Using reaction 1.	

Reaction 1.	

	  1.000e-02 moles of the following reaction have been added:

	                 Relative
	Reactant            moles

	Fe1S3                1.00000

	                 Relative
	Element             moles
	Fe                   1.00000
	S                    3.00000

-------------------------------Phase assemblage--------------------------------

                                                      Moles in assemblage
Phase               SI  log IAP  log K(T, P)   Initial       Final       Delta

Greigite          6.48     0.00     -6.48    0.000e+00           0   0.000e+00
Mackinawite      -9.93   -12.06     -2.14    0.000e+00           0   0.000e+00
NaNO3           -57.86   -77.86    -20.00    0.000e+00           0   0.000e+00
Pyrite           10.37     0.00    -10.37    1.011e-01   1.111e-01   1.000e-02
Pyrrhotite       -6.28    18.72     25.00    0.000e+00           0   0.000e+00
pH_fix           -8.00    -8.00      0.00
	 HCl                is reactant       9.965e+00   9.985e+00   1.987e-02
pe_fix            4.56     4.56      0.00
	 O2                 is reactant       1.009e+01   1.007e+01  -1.490e-02

-----------------------------Solution composition------------------------------

	Elements           Molality       Moles

	Cl                1.530e-02   1.523e-02
	Fe                2.124e-15   2.115e-15
	N                 1.205e-01   1.200e-01
	Na                1.205e-01   1.200e-01
	S                 1.116e-01   1.111e-01

----------------------------Description of solution----------------------------

                                       pH  =   8.000      Charge balance
                                       pe  =  -4.560      Adjusted to redox equilibrium
                        Activity of water  =   0.994
                 Ionic strength (mol/kgw)  =   2.883e-01
                       Mass of water (kg)  =   9.958e-01
                 Total alkalinity (eq/kg)  =   3.806e-03
                         Temperature (°C)  =  25.00
                  Electrical balance (eq)  =  -2.633e-12
 Percent error, 100*(Cat-|An|)/(Cat+|An|)  =  -0.00
                               Iterations  =   7
                                  Total H  = 1.110277e+02
                                  Total O  = 5.571724e+01

----------------------------Distribution of species----------------------------

                                               Log       Log       Log    mole V
   Species          Molality    Activity  Molality  Activity     Gamma    cm³/mol

   OH-             1.475e-06   9.989e-07    -5.831    -6.000    -0.169     (0)  
   H+              1.276e-08   1.000e-08    -7.894    -8.000    -0.106      0.00
   H2O             5.551e+01   9.943e-01     1.744    -0.002     0.000     18.07
Cl            1.530e-02
   Cl-             1.530e-02   1.023e-02    -1.815    -1.990    -0.175     (0)  
   FeCl+2          1.033e-34   2.705e-35   -33.986   -34.568    -0.582     (0)  
   FeCl2+          1.728e-36   1.236e-36   -35.762   -35.908    -0.146     (0)  
   FeCl3           1.183e-39   1.264e-39   -38.927   -38.898     0.029     (0)  
Fe(2)         2.124e-15
   Fe(HS)2         1.830e-15   1.956e-15   -14.737   -14.709     0.029     (0)  
   Fe+2            1.166e-16   3.423e-17   -15.933   -16.466    -0.532     (0)  
   FeSO4           1.021e-16   1.091e-16   -15.991   -15.962     0.029     (0)  
   Fe(HS)3-        7.343e-17   5.393e-17   -16.134   -16.268    -0.134     (0)  
   FeOH+           1.504e-18   1.076e-18   -17.823   -17.968    -0.146     (0)  
   Fe(OH)2         8.522e-22   9.107e-22   -21.069   -21.041     0.029     (0)  
   Fe(OH)3-        4.703e-24   3.364e-24   -23.328   -23.473    -0.146     (0)  
Fe(3)         7.549e-24
   Fe(OH)4-        2.969e-24   2.150e-24   -23.527   -23.668    -0.140     (0)  
   Fe(OH)2+        2.556e-24   1.851e-24   -23.592   -23.733    -0.140     (0)  
   Fe(OH)3         2.023e-24   2.162e-24   -23.694   -23.665     0.029     (0)  
   FeOH+2          2.148e-28   5.622e-29   -27.668   -28.250    -0.582     (0)  
   FeSO4+          1.825e-32   1.306e-32   -31.739   -31.884    -0.146     (0)  
   Fe(SO4)2-       1.008e-32   7.402e-33   -31.997   -32.131    -0.134     (0)  
   Fe+3            7.851e-34   8.757e-35   -33.105   -34.058    -0.953     (0)  
   FeCl+2          1.033e-34   2.705e-35   -33.986   -34.568    -0.582     (0)  
   FeCl2+          1.728e-36   1.236e-36   -35.762   -35.908    -0.146     (0)  
   FeCl3           1.183e-39   1.264e-39   -38.927   -38.898     0.029     (0)  
   Fe2(OH)2+4      0.000e+00   0.000e+00   -52.925   -55.070    -2.145     (0)  
   Fe3(OH)4+5      0.000e+00   0.000e+00   -73.131   -76.483    -3.352     (0)  
H(0)          1.747e-10
   H2              8.733e-11   9.333e-11   -10.059   -10.030     0.029     (0)  
N(-3)         1.205e-01
   NH4+            9.696e-02   6.259e-02    -1.013    -1.203    -0.190     (0)  
   NH4SO4-         2.021e-02   1.445e-02    -1.694    -1.840    -0.146     (0)  
   NH3             3.338e-03   3.567e-03    -2.477    -2.448     0.029     (0)  
N(3)          0.000e+00
   NO2-            0.000e+00   0.000e+00   -54.941   -55.075    -0.134     (0)  
N(5)          0.000e+00
   NO3-            0.000e+00   0.000e+00   -76.589   -76.768    -0.179     (0)  
Na            1.205e-01
   Na+             1.105e-01   8.027e-02    -0.956    -1.095    -0.139     (0)  
   NaSO4-          9.961e-03   7.212e-03    -2.002    -2.142    -0.140     (0)  
O(0)          0.000e+00
   O2              0.000e+00   0.000e+00   -72.354   -72.325     0.029     (0)  
S(-2)         6.256e-04
   HS-             3.739e-04   2.532e-04    -3.427    -3.597    -0.169     (0)  
   S5-2            2.212e-05   6.434e-06    -4.655    -5.192    -0.536     (0)  
   H2S             2.072e-05   2.214e-05    -4.684    -4.655     0.029     (0)  
   S4-2            1.290e-05   3.754e-06    -4.889    -5.426    -0.536     (0)  
   S6-2            1.145e-05   3.330e-06    -4.941    -5.478    -0.536     (0)  
   S-2             1.168e-08   3.058e-09    -7.932    -8.515    -0.582     (0)  
   S3-2            4.547e-09   1.323e-09    -8.342    -8.879    -0.536     (0)  
   S2-2            2.581e-10   7.507e-11    -9.588   -10.125    -0.536     (0)  
   Fe(HS)2         1.830e-15   1.956e-15   -14.737   -14.709     0.029     (0)  
   Fe(HS)3-        7.343e-17   5.393e-17   -16.134   -16.268    -0.134     (0)  
S(6)          1.109e-01
   SO4-2           8.078e-02   1.793e-02    -1.093    -1.747    -0.654     (0)  
   NH4SO4-         2.021e-02   1.445e-02    -1.694    -1.840    -0.146     (0)  
   NaSO4-          9.961e-03   7.212e-03    -2.002    -2.142    -0.140     (0)  
   HSO4-           2.472e-08   1.740e-08    -7.607    -7.760    -0.153     (0)  
   FeSO4           1.021e-16   1.091e-16   -15.991   -15.962     0.029     (0)  
   FeSO4+          1.825e-32   1.306e-32   -31.739   -31.884    -0.146     (0)  
   Fe(SO4)2-       1.008e-32   7.402e-33   -31.997   -32.131    -0.134     (0)  

------------------------------Saturation indices-------------------------------

  Phase               SI** log IAP   log K(298 K,   1 atm)

  Fe(OH)2.7Cl0.3  -10.02    -13.06   -3.04  Fe(OH)2.7Cl0.3
  Fe2(SO4)3       -76.93    -73.35    3.58  Fe2(SO4)3
  Fe3(OH)8        -40.82    -20.60   20.22  Fe3(OH)8
  Ferrihydrite    -14.96    -10.07    4.89  Fe(OH)3
  FeS(ppt)         -8.15    -12.06   -3.92  FeS
  Goethite        -10.56    -10.06    0.50  FeOOH
  Greigite        -25.91    -40.90  -15.00  Fe3S4
  Halite           -4.67     -3.09    1.58  NaCl
  Hematite        -16.11    -20.12   -4.01  Fe2O3
  Jarosite-H      -53.58    -65.68  -12.10  (H3O)Fe3(SO4)2(OH)6
  Jarosite-Na     -47.58    -58.78  -11.20  NaFe3(SO4)2(OH)6
  Lepidocrocite   -11.43    -10.06    1.37  FeOOH
  Mackinawite      -9.93    -12.06   -2.14  FeS
  Maghemite       -26.51    -20.12    6.39  Fe2O3
  Magnetite       -24.33    -20.59    3.74  Fe3O4
  Melanterite     -15.76    -18.23   -2.47  FeSO4:7H2O
  Mirabilite       -2.85     -3.96   -1.11  Na2SO4:10H2O
  NaCl             16.91     -3.09  -20.00  NaCl
  NaNO3           -57.86    -77.86  -20.00  NaNO3
  O2(g)           -69.36     13.76   83.12  O2
  pe_fix            4.56      4.56    0.00  e-
  pH_fix           -8.00     -8.00    0.00  H+
  Pyrite           -0.00    -16.78  -16.78  FeS2
  Pyrrhotite       -8.88     14.00   22.89  FeS
  Sulfur           -2.61     -4.72   -2.11  S
  Thenardite       -3.76     -3.94   -0.18  Na2SO4

**For a gas, SI = log10(fugacity). Fugacity = pressure * phi / 1 atm.
  For ideal gases, phi = 1.

------------------
End of simulation.
------------------

------------------------------------
Reading input data for simulation 6.
------------------------------------

-------------------------------
End of Run after 1.676 Seconds.
-------------------------------

