   Input file: C:\Users\jt2020\OneDrive - Imperial College London\Data\Thermodynamics\Thermodynamics\Phreeq\Reaction Progress\All models with pyrrhotite\S0\Final S0 input\S0 input Fe dominant.pqi
  Output file: C:\Users\jt2020\OneDrive - Imperial College London\Data\Thermodynamics\Thermodynamics\Phreeq\Reaction Progress\All models with pyrrhotite\S0\Final S0 input\S0 input Fe dominant.pqo
Database file: C:\Users\jt2020\OneDrive - Imperial College London\Data\Thermodynamics\Thermodynamics\Phreeq\Reaction Progress\All models with pyrrhotite\Database\llnlpyrrminteq.dat

------------------
Reading data base.
------------------

	SOLUTION_MASTER_SPECIES
	SOLUTION_SPECIES
	SOLUTION_SPECIES
	PHASES
	SURFACE_MASTER_SPECIES
	SURFACE_SPECIES
	END
------------------------------------
Reading input data for simulation 1.
------------------------------------

	DATABASE C:\Users\jt2020\OneDrive - Imperial College London\Data\Thermodynamics\Thermodynamics\Phreeq\Reaction Progress\All models with pyrrhotite\Database\llnlpyrrminteq.dat
	TITLE S0 pH 2 pe 0
	SOLUTION 1  PURE WATER
	            pH    2 charge
	          temp   25.0
	           pe     2.95
	PHASES
	       pH_fix
	                H + = H +
	                log_k = 0.0
	       pe_fix
	                e- = e-
	                log_k 0.0
	Sulfur
	    S + 2H+ + 2e- = H2S
	    log_k     4.843
	    delta_h   -9.23 kcal
	Pyrrhotite
	    FeS + 2Fe+3 = 3Fe+2 + Sulfur(s)   #reaction from Belzile et al 04 pyrr oxidation reaction
	    log_k     24.9953
	    delta_h        -17.9906 kcal      
	Mackinawite
	    FeS + 2H+ = Fe+2 + H2S
	    log_k     4.850
	    delta_h        -8.901 kcal
	Greigite
	    Fe3S4 = 3Mackinawite(s) + Sulfur(s)
	    log_k     -6.476
	    delta_h   37.637 kcal
	Pyrite
	    FeS2 = 0.3333333333Greigite(s) + 0.6666666666Sulfur(s)
	    log_k     -10.373
	    delta_h   7.061 kcal
	NaNO3
	    NaNO3 = Na+ + NO3-
	    log_K -20
	NaCl
	    NaCl = Cl- + Na+
	    log_k     -20
	END
-----
TITLE
-----

 S0 pH 2 pe 0

-------------------------------------------
Beginning of initial solution calculations.
-------------------------------------------

Initial solution 1.	PURE WATER

-----------------------------Solution composition------------------------------

	Elements           Molality       Moles

	Pure water     

----------------------------Description of solution----------------------------

                                       pH  =   6.999      Charge balance
                                       pe  =   2.950    
                        Activity of water  =   1.000
                 Ionic strength (mol/kgw)  =   1.003e-07
                       Mass of water (kg)  =   1.000e+00
                 Total alkalinity (eq/kg)  =   2.263e-21
                         Temperature (°C)  =  25.00
                  Electrical balance (eq)  =  -2.263e-21
 Percent error, 100*(Cat-|An|)/(Cat+|An|)  =  -0.00
                               Iterations  =  15
                                  Total H  = 1.110124e+02
                                  Total O  = 5.550622e+01

----------------------------Distribution of species----------------------------

                                               Log       Log       Log    mole V
   Species          Molality    Activity  Molality  Activity     Gamma    cm³/mol

   OH-             1.003e-07   1.002e-07    -6.999    -6.999    -0.000     (0)  
   H+              1.003e-07   1.002e-07    -6.999    -6.999    -0.000      0.00
   H2O             5.551e+01   1.000e+00     1.744    -0.000     0.000     18.07
H(0)          1.791e-23
   H2              8.954e-24   8.954e-24   -23.048   -23.048     0.000     (0)  
O(0)          0.000e+00
   O2              0.000e+00   0.000e+00   -46.284   -46.284     0.000     (0)  

------------------------------Saturation indices-------------------------------

  Phase               SI** log IAP   log K(298 K,   1 atm)

  O2(g)           -43.32     39.80   83.12  O2
  pe_fix           -2.95     -2.95    0.00  e-
  pH_fix           -7.00     -7.00    0.00  H+

**For a gas, SI = log10(fugacity). Fugacity = pressure * phi / 1 atm.
  For ideal gases, phi = 1.

------------------
End of simulation.
------------------

------------------------------------
Reading input data for simulation 2.
------------------------------------

	INCREMENTAL_REACTIONS
	REACTION
	Fe3S1 1
	10*1e-12 10*1e-11 10*1e-10 10*1e-9 10*1e-8 10*1e-7 10*1e-6 10*1e-5 10*1e-4  10*1e-3  10*1e-2 mol
	USE solution 1
	EQUILIBRIUM_PHASES 1
	        Mackinawite     0.0     0.0 
	        Greigite        0.0     0.0
	        Pyrite          0.0     0.0
	        Pyrrhotite      0.0     0.0
	        pH_fix          -2          HCl       10   
	        pe_fix          -2.95       O2(g)     10
	USER_GRAPH 1 Simulation 6
	    -headings               Pyrite Greigite Mackinawite Pyrrhotite
	    -axis_titles            "Fe and S added, Log moles" "Mineral, moles"
	    -chart_title            "Iron dominant system with S0 as the oxidant. Fix both +175mV at pH 5"
	    -axis_scale sy_axis     auto auto auto auto log
	    -initial_solutions      false
	    -connect_simulations    false
	    -axis_scale y_axis      auto auto auto auto Log
	    -axis_scale sy_axis	    auto auto auto auto Log
	    -plot_concentration_vs  x
	  -start
	 5 PUT(GET(1) + RXN, 1)
	  20 PLOT_XY log10(GET(1)), EQUI("Pyrite") color = Green, line_w = 0,   	symbol = Plus, symbol_size = 5, y_axis = 2
	  30 PLOT_XY log10(GET(1)), EQUI("Greigite") color = Blue, line_w = 0,   	symbol = Plus, symbol_size = 5, y_axis = 2
	  40 PLOT_XY log10(GET(1)), EQUI("Mackinawite") color = Cyan, line_w = 0,   	symbol = Plus, symbol_size = 5, y_axis = 2
	  50 PLOT_XY log10(GET(1)), EQUI("Pyrrhotite") color = Red, line_w = 0,   	symbol = Plus, symbol_size = 5, y_axis = 2
	  -end
	    -active                 true
	SELECTED_OUTPUT
	    file                 S0 Fe dominated pH 2 oxic H2S.csv
	    saturation_indices   Mackinawite  Greigite  Pyrite Pyrrhotite
	    reaction             
	    totals               Fe S 
	    equilibrium_phases   Mackinawite  Greigite  Pyrite Pyrrhotite
	TITLE S0 pH 7 pe -3.38
	SOLUTION 1  PURE WATER
	            pH    7 charge
	          temp   25.0
	           pe     -3.38
	PHASES
	       pH_fix
	                H + = H +
	                log_k = 0.0
	       pe_fix
	                e- = e-
	                log_k 0.0
	Sulfur
	    S + H+ + 2e- = HS-
	    log_k     -2.11
	    delta_h   -4.2 kcal
	Pyrrhotite
	    FeS + 2Fe+3 = 3Fe+2 + Sulfur(s)   #reaction from Belzile et al 04 pyrr oxidation reaction
	    log_k     24.9953
	    delta_h        -17.9906 kcal      
	Mackinawite
	    FeS + H+ = Fe+2 + HS-
	    log_k     -2.137
	    delta_h   -3.578 kcal
	Greigite
	    Fe3S4 = 3Mackinawite(s) + Sulfur(s)
	    log_k     -6.476
	    delta_h   37.637 kcal
	Pyrite
	    FeS2 = 0.3333333333Greigite(s) + 0.6666666666Sulfur(s)
	    log_k     -10.373
	    delta_h   7.061 kcal
	NaNO3
	    NaNO3 = Na+ + NO3-
	    log_K -20
	NaCl
	    NaCl = Cl- + Na+
	    log_k     -20
	END
-----
TITLE
-----

 S0 pH 7 pe -3.38

-------------------------------------------
Beginning of initial solution calculations.
-------------------------------------------

Initial solution 1.	PURE WATER

-----------------------------Solution composition------------------------------

	Elements           Molality       Moles

	Pure water     

----------------------------Description of solution----------------------------

                                       pH  =   6.999      Charge balance
                                       pe  =  -3.380    
                        Activity of water  =   1.000
                 Ionic strength (mol/kgw)  =   1.003e-07
                       Mass of water (kg)  =   1.000e+00
                 Total alkalinity (eq/kg)  =   1.295e-17
                         Temperature (°C)  =  25.00
                  Electrical balance (eq)  =  -1.295e-17
 Percent error, 100*(Cat-|An|)/(Cat+|An|)  =  -0.00
                               Iterations  =   2
                                  Total H  = 1.110124e+02
                                  Total O  = 5.550622e+01

----------------------------Distribution of species----------------------------

                                               Log       Log       Log    mole V
   Species          Molality    Activity  Molality  Activity     Gamma    cm³/mol

   OH-             1.003e-07   1.002e-07    -6.999    -6.999    -0.000     (0)  
   H+              1.003e-07   1.002e-07    -6.999    -6.999    -0.000      0.00
   H2O             5.551e+01   1.000e+00     1.744    -0.000     0.000     18.07
H(0)          8.185e-11
   H2              4.093e-11   4.093e-11   -10.388   -10.388     0.000     (0)  
O(0)          0.000e+00
   O2              0.000e+00   0.000e+00   -71.604   -71.604     0.000     (0)  

------------------------------Saturation indices-------------------------------

  Phase               SI** log IAP   log K(298 K,   1 atm)

  O2(g)           -68.64     14.48   83.12  O2
  pe_fix            3.38      3.38    0.00  e-
  pH_fix           -7.00     -7.00    0.00  H+

**For a gas, SI = log10(fugacity). Fugacity = pressure * phi / 1 atm.
  For ideal gases, phi = 1.

-----------------------------------------
Beginning of batch-reaction calculations.
-----------------------------------------

Reaction step 1.

Using solution 1.	PURE WATER
Using pure phase assemblage 1.	
Using reaction 1.	

Reaction 1.	

	  1.000e-12 moles of the following reaction have been added:

	                 Relative
	Reactant            moles

	Fe3S1                1.00000

	                 Relative
	Element             moles
	Fe                   3.00000
	S                    1.00000

-------------------------------Phase assemblage--------------------------------

                                                      Moles in assemblage
Phase               SI  log IAP  log K(T, P)   Initial       Final       Delta

Greigite          6.48     0.00     -6.48    0.000e+00           0   0.000e+00
Mackinawite     -27.92   -30.06     -2.14    0.000e+00           0   0.000e+00
Pyrite           10.37     0.00    -10.37    0.000e+00           0   0.000e+00
Pyrrhotite      -16.53     8.46     25.00    0.000e+00           0   0.000e+00
pH_fix           -2.00    -2.00      0.00
	 HCl                is reactant       1.000e+01   9.989e+00  -1.099e-02
pe_fix           -2.95    -2.95      0.00
	 O2                 is reactant       1.000e+01   1.000e+01  -2.342e-11

-----------------------------Solution composition------------------------------

	Elements           Molality       Moles

	Cl                1.099e-02   1.099e-02
	Fe                3.000e-12   3.000e-12
	S                 1.000e-12   1.000e-12

----------------------------Description of solution----------------------------

                                       pH  =   2.000      Charge balance
                                       pe  =   2.950      Adjusted to redox equilibrium
                        Activity of water  =   1.000
                 Ionic strength (mol/kgw)  =   1.099e-02
                       Mass of water (kg)  =   1.000e+00
                 Total alkalinity (eq/kg)  =  -1.099e-02
                         Temperature (°C)  =  25.00
                  Electrical balance (eq)  =   2.190e-11
 Percent error, 100*(Cat-|An|)/(Cat+|An|)  =   0.00
                               Iterations  =  15
                                  Total H  = 1.110234e+02
                                  Total O  = 5.550622e+01

----------------------------Distribution of species----------------------------

                                               Log       Log       Log    mole V
   Species          Molality    Activity  Molality  Activity     Gamma    cm³/mol

   H+              1.099e-02   1.000e-02    -1.959    -2.000    -0.041      0.00
   OH-             1.121e-12   1.004e-12   -11.950   -11.998    -0.048     (0)  
   H2O             5.551e+01   9.996e-01     1.744    -0.000     0.000     18.07
Cl            1.099e-02
   Cl-             1.099e-02   9.829e-03    -1.959    -2.007    -0.048     (0)  
   FeCl+2          7.462e-23   4.903e-23   -22.127   -22.310    -0.182     (0)  
   FeCl2+          2.391e-24   2.153e-24   -23.621   -23.667    -0.046     (0)  
   FeCl3           2.110e-27   2.116e-27   -26.676   -26.675     0.001     (0)  
Fe(2)         3.000e-12
   Fe+2            3.000e-12   1.995e-12   -11.523   -11.700    -0.177     (0)  
   FeOH+           7.004e-20   6.306e-20   -19.155   -19.200    -0.046     (0)  
   FeSO4           1.349e-22   1.352e-22   -21.870   -21.869     0.001     (0)  
   Fe(OH)2         5.352e-29   5.365e-29   -28.272   -28.270     0.001     (0)  
   Fe(OH)3-        2.213e-37   1.993e-37   -36.655   -36.701    -0.046     (0)  
   Fe(HS)2         0.000e+00   0.000e+00   -43.468   -43.467     0.001     (0)  
   Fe(HS)3-        0.000e+00   0.000e+00   -61.741   -61.788    -0.047     (0)  
Fe(3)         6.279e-22
   Fe+3            3.848e-22   1.652e-22   -21.415   -21.782    -0.367     (0)  
   FeOH+2          1.622e-22   1.066e-22   -21.790   -21.972    -0.182     (0)  
   FeCl+2          7.462e-23   4.903e-23   -22.127   -22.310    -0.182     (0)  
   Fe(OH)2+        3.914e-24   3.528e-24   -23.407   -23.452    -0.045     (0)  
   FeCl2+          2.391e-24   2.153e-24   -23.621   -23.667    -0.046     (0)  
   FeCl3           2.110e-27   2.116e-27   -26.676   -26.675     0.001     (0)  
   Fe(OH)3         4.134e-30   4.144e-30   -29.384   -29.383     0.001     (0)  
   FeSO4+          5.816e-31   5.236e-31   -30.235   -30.281    -0.046     (0)  
   Fe(OH)4-        4.595e-36   4.142e-36   -35.338   -35.383    -0.045     (0)  
   Fe(SO4)2-       0.000e+00   0.000e+00   -41.153   -41.200    -0.047     (0)  
   Fe2(OH)2+4      0.000e+00   0.000e+00   -41.767   -42.515    -0.747     (0)  
   Fe3(OH)4+5      0.000e+00   0.000e+00   -62.479   -63.647    -1.168     (0)  
H(0)          1.778e-13
   H2              8.890e-14   8.913e-14   -13.051   -13.050     0.001     (0)  
O(0)          0.000e+00
   O2              0.000e+00   0.000e+00   -66.281   -66.280     0.001     (0)  
S(-2)         3.822e-16
   H2S             3.822e-16   3.832e-16   -15.418   -15.417     0.001     (0)  
   HS-             4.892e-21   4.383e-21   -20.311   -20.358    -0.048     (0)  
   S5-2            1.712e-28   1.114e-28   -27.766   -27.953    -0.187     (0)  
   S4-2            9.990e-29   6.498e-29   -28.000   -28.187    -0.187     (0)  
   S6-2            8.863e-29   5.764e-29   -28.052   -28.239    -0.187     (0)  
   S-2             8.057e-32   5.294e-32   -31.094   -31.276    -0.182     (0)  
   S3-2            3.520e-32   2.290e-32   -31.453   -31.640    -0.187     (0)  
   S2-2            1.998e-33   1.299e-33   -32.699   -32.886    -0.187     (0)  
   Fe(HS)2         0.000e+00   0.000e+00   -43.468   -43.467     0.001     (0)  
   Fe(HS)3-        0.000e+00   0.000e+00   -61.741   -61.788    -0.047     (0)  
S(6)          9.996e-13
   SO4-2           5.882e-13   3.812e-13   -12.231   -12.419    -0.188     (0)  
   HSO4-           4.115e-13   3.699e-13   -12.386   -12.432    -0.046     (0)  
   FeSO4           1.349e-22   1.352e-22   -21.870   -21.869     0.001     (0)  
   FeSO4+          5.816e-31   5.236e-31   -30.235   -30.281    -0.046     (0)  
   Fe(SO4)2-       0.000e+00   0.000e+00   -41.153   -41.200    -0.047     (0)  

------------------------------Saturation indices-------------------------------

  Phase               SI** log IAP   log K(298 K,   1 atm)

  Fe(OH)2.7Cl0.3  -13.94    -16.98   -3.04  Fe(OH)2.7Cl0.3
  Fe2(SO4)3       -84.40    -80.82    3.58  Fe2(SO4)3
  Fe3(OH)8        -59.49    -39.27   20.22  Fe3(OH)8
  Ferrihydrite    -20.67    -15.78    4.89  Fe(OH)3
  FeS(ppt)        -26.14    -30.06   -3.92  FeS
  Goethite        -16.28    -15.78    0.50  FeOOH
  Greigite        -87.64   -102.63  -15.00  Fe3S4
  Hematite        -27.56    -31.56   -4.01  Fe2O3
  Jarosite-H      -68.09    -80.19  -12.10  (H3O)Fe3(SO4)2(OH)6
  Lepidocrocite   -17.15    -15.78    1.37  FeOOH
  Mackinawite     -27.92    -30.06   -2.14  FeS
  Maghemite       -37.95    -31.56    6.39  Fe2O3
  Magnetite       -43.00    -39.26    3.74  Fe3O4
  Melanterite     -21.65    -24.12   -2.47  FeSO4:7H2O
  O2(g)           -63.32     19.80   83.12  O2
  pe_fix           -2.95     -2.95    0.00  e-
  pH_fix           -2.00     -2.00    0.00  H+
  Pyrite          -25.74    -42.52  -16.78  FeS2
  Pyrrhotite      -26.88     -3.99   22.89  FeS
  Sulfur          -10.35    -12.46   -2.11  S

**For a gas, SI = log10(fugacity). Fugacity = pressure * phi / 1 atm.
  For ideal gases, phi = 1.

Reaction step 2.

Using solution 1.	PURE WATER
Using pure phase assemblage 1.	
Using reaction 1.	

Reaction 1.	

	  1.000e-12 moles of the following reaction have been added:

	                 Relative
	Reactant            moles

	Fe3S1                1.00000

	                 Relative
	Element             moles
	Fe                   3.00000
	S                    1.00000

-------------------------------Phase assemblage--------------------------------

                                                      Moles in assemblage
Phase               SI  log IAP  log K(T, P)   Initial       Final       Delta

Greigite          6.48     0.00     -6.48    0.000e+00           0   0.000e+00
Mackinawite     -27.32   -29.46     -2.14    0.000e+00           0   0.000e+00
Pyrite           10.37     0.00    -10.37    0.000e+00           0   0.000e+00
Pyrrhotite      -16.23     8.76     25.00    0.000e+00           0   0.000e+00
pH_fix           -2.00    -2.00      0.00
	 HCl                is reactant       9.989e+00   9.989e+00  -4.372e-12
pe_fix           -2.95    -2.95      0.00
	 O2                 is reactant       1.000e+01   1.000e+01  -2.998e-12

-----------------------------Solution composition------------------------------

	Elements           Molality       Moles

	Cl                1.099e-02   1.099e-02
	Fe                6.000e-12   6.000e-12
	S                 2.000e-12   2.000e-12

----------------------------Description of solution----------------------------

                                       pH  =   2.000      Charge balance
                                       pe  =   2.950      Adjusted to redox equilibrium
                        Activity of water  =   1.000
                 Ionic strength (mol/kgw)  =   1.099e-02
                       Mass of water (kg)  =   1.000e+00
                 Total alkalinity (eq/kg)  =  -1.099e-02
                         Temperature (°C)  =  25.00
                  Electrical balance (eq)  =   2.190e-11
 Percent error, 100*(Cat-|An|)/(Cat+|An|)  =   0.00
                               Iterations  =   5
                                  Total H  = 1.110234e+02
                                  Total O  = 5.550622e+01

----------------------------Distribution of species----------------------------

                                               Log       Log       Log    mole V
   Species          Molality    Activity  Molality  Activity     Gamma    cm³/mol

   H+              1.099e-02   1.000e-02    -1.959    -2.000    -0.041      0.00
   OH-             1.121e-12   1.004e-12   -11.950   -11.998    -0.048     (0)  
   H2O             5.551e+01   9.996e-01     1.744    -0.000     0.000     18.07
Cl            1.099e-02
   Cl-             1.099e-02   9.829e-03    -1.959    -2.007    -0.048     (0)  
   FeCl+2          1.492e-22   9.805e-23   -21.826   -22.009    -0.182     (0)  
   FeCl2+          4.782e-24   4.305e-24   -23.320   -23.366    -0.046     (0)  
   FeCl3           4.221e-27   4.232e-27   -26.375   -26.373     0.001     (0)  
Fe(2)         6.000e-12
   Fe+2            6.000e-12   3.990e-12   -11.222   -11.399    -0.177     (0)  
   FeOH+           1.401e-19   1.261e-19   -18.854   -18.899    -0.046     (0)  
   FeSO4           5.395e-22   5.408e-22   -21.268   -21.267     0.001     (0)  
   Fe(OH)2         1.070e-28   1.073e-28   -27.970   -27.969     0.001     (0)  
   Fe(OH)3-        4.426e-37   3.985e-37   -36.354   -36.400    -0.046     (0)  
   Fe(HS)2         0.000e+00   0.000e+00   -42.565   -42.563     0.001     (0)  
   Fe(HS)3-        0.000e+00   0.000e+00   -60.537   -60.584    -0.047     (0)  
Fe(3)         1.256e-21
   Fe+3            7.695e-22   3.303e-22   -21.114   -21.481    -0.367     (0)  
   FeOH+2          3.245e-22   2.132e-22   -21.489   -21.671    -0.182     (0)  
   FeCl+2          1.492e-22   9.805e-23   -21.826   -22.009    -0.182     (0)  
   Fe(OH)2+        7.829e-24   7.057e-24   -23.106   -23.151    -0.045     (0)  
   FeCl2+          4.782e-24   4.305e-24   -23.320   -23.366    -0.046     (0)  
   FeCl3           4.221e-27   4.232e-27   -26.375   -26.373     0.001     (0)  
   Fe(OH)3         8.267e-30   8.288e-30   -29.083   -29.082     0.001     (0)  
   FeSO4+          2.326e-30   2.094e-30   -29.633   -29.679    -0.046     (0)  
   Fe(OH)4-        9.191e-36   8.285e-36   -35.037   -35.082    -0.045     (0)  
   Fe(SO4)2-       0.000e+00   0.000e+00   -40.250   -40.297    -0.047     (0)  
   Fe2(OH)2+4      0.000e+00   0.000e+00   -41.165   -41.912    -0.747     (0)  
   Fe3(OH)4+5      0.000e+00   0.000e+00   -61.576   -62.744    -1.168     (0)  
H(0)          1.778e-13
   H2              8.890e-14   8.913e-14   -13.051   -13.050     0.001     (0)  
O(0)          0.000e+00
   O2              0.000e+00   0.000e+00   -66.281   -66.280     0.001     (0)  
S(-2)         7.645e-16
   H2S             7.645e-16   7.664e-16   -15.117   -15.116     0.001     (0)  
   HS-             9.784e-21   8.766e-21   -20.010   -20.057    -0.048     (0)  
   S5-2            3.425e-28   2.227e-28   -27.465   -27.652    -0.187     (0)  
   S4-2            1.998e-28   1.300e-28   -27.699   -27.886    -0.187     (0)  
   S6-2            1.773e-28   1.153e-28   -27.751   -27.938    -0.187     (0)  
   S-2             1.611e-31   1.059e-31   -30.793   -30.975    -0.182     (0)  
   S3-2            7.040e-32   4.579e-32   -31.152   -31.339    -0.187     (0)  
   S2-2            3.996e-33   2.599e-33   -32.398   -32.585    -0.187     (0)  
   Fe(HS)2         0.000e+00   0.000e+00   -42.565   -42.563     0.001     (0)  
   Fe(HS)3-        0.000e+00   0.000e+00   -60.537   -60.584    -0.047     (0)  
S(6)          1.999e-12
   SO4-2           1.176e-12   7.623e-13   -11.929   -12.118    -0.188     (0)  
   HSO4-           8.229e-13   7.397e-13   -12.085   -12.131    -0.046     (0)  
   FeSO4           5.395e-22   5.408e-22   -21.268   -21.267     0.001     (0)  
   FeSO4+          2.326e-30   2.094e-30   -29.633   -29.679    -0.046     (0)  
   Fe(SO4)2-       0.000e+00   0.000e+00   -40.250   -40.297    -0.047     (0)  

------------------------------Saturation indices-------------------------------

  Phase               SI** log IAP   log K(298 K,   1 atm)

  Fe(OH)2.7Cl0.3  -13.64    -16.68   -3.04  Fe(OH)2.7Cl0.3
  Fe2(SO4)3       -82.90    -79.32    3.58  Fe2(SO4)3
  Fe3(OH)8        -58.58    -38.36   20.22  Fe3(OH)8
  Ferrihydrite    -20.37    -15.48    4.89  Fe(OH)3
  FeS(ppt)        -25.54    -29.46   -3.92  FeS
  Goethite        -15.98    -15.48    0.50  FeOOH
  Greigite        -85.53   -100.53  -15.00  Fe3S4
  Hematite        -26.95    -30.96   -4.01  Fe2O3
  Jarosite-H      -66.58    -78.68  -12.10  (H3O)Fe3(SO4)2(OH)6
  Lepidocrocite   -16.85    -15.48    1.37  FeOOH
  Mackinawite     -27.32    -29.46   -2.14  FeS
  Maghemite       -37.35    -30.96    6.39  Fe2O3
  Magnetite       -42.10    -38.36    3.74  Fe3O4
  Melanterite     -21.05    -23.52   -2.47  FeSO4:7H2O
  O2(g)           -63.32     19.80   83.12  O2
  pe_fix           -2.95     -2.95    0.00  e-
  pH_fix           -2.00     -2.00    0.00  H+
  Pyrite          -24.83    -41.61  -16.78  FeS2
  Pyrrhotite      -26.28     -3.39   22.89  FeS
  Sulfur          -10.05    -12.16   -2.11  S

**For a gas, SI = log10(fugacity). Fugacity = pressure * phi / 1 atm.
  For ideal gases, phi = 1.

Reaction step 3.

Using solution 1.	PURE WATER
Using pure phase assemblage 1.	
Using reaction 1.	

Reaction 1.	

	  1.000e-12 moles of the following reaction have been added:

	                 Relative
	Reactant            moles

	Fe3S1                1.00000

	                 Relative
	Element             moles
	Fe                   3.00000
	S                    1.00000

-------------------------------Phase assemblage--------------------------------

                                                      Moles in assemblage
Phase               SI  log IAP  log K(T, P)   Initial       Final       Delta

Greigite          6.48     0.00     -6.48    0.000e+00           0   0.000e+00
Mackinawite     -26.97   -29.10     -2.14    0.000e+00           0   0.000e+00
Pyrite           10.37     0.00    -10.37    0.000e+00           0   0.000e+00
Pyrrhotite      -16.05     8.94     25.00    0.000e+00           0   0.000e+00
pH_fix           -2.00    -2.00      0.00
	 HCl                is reactant       9.989e+00   9.989e+00  -4.770e-12
pe_fix           -2.95    -2.95      0.00
	 O2                 is reactant       1.000e+01   1.000e+01  -3.000e-12

-----------------------------Solution composition------------------------------

	Elements           Molality       Moles

	Cl                1.099e-02   1.099e-02
	Fe                9.000e-12   9.000e-12
	S                 3.000e-12   3.000e-12

----------------------------Description of solution----------------------------

                                       pH  =   2.000      Charge balance
                                       pe  =   2.950      Adjusted to redox equilibrium
                        Activity of water  =   1.000
                 Ionic strength (mol/kgw)  =   1.099e-02
                       Mass of water (kg)  =   1.000e+00
                 Total alkalinity (eq/kg)  =  -1.099e-02
                         Temperature (°C)  =  25.00
                  Electrical balance (eq)  =   2.190e-11
 Percent error, 100*(Cat-|An|)/(Cat+|An|)  =   0.00
                               Iterations  =   4
                                  Total H  = 1.110234e+02
                                  Total O  = 5.550622e+01

----------------------------Distribution of species----------------------------

                                               Log       Log       Log    mole V
   Species          Molality    Activity  Molality  Activity     Gamma    cm³/mol

   H+              1.099e-02   1.000e-02    -1.959    -2.000    -0.041      0.00
   OH-             1.121e-12   1.004e-12   -11.950   -11.998    -0.048     (0)  
   H2O             5.551e+01   9.996e-01     1.744    -0.000     0.000     18.07
Cl            1.099e-02
   Cl-             1.099e-02   9.829e-03    -1.959    -2.007    -0.048     (0)  
   FeCl+2          2.239e-22   1.471e-22   -21.650   -21.832    -0.182     (0)  
   FeCl2+          7.173e-24   6.458e-24   -23.144   -23.190    -0.046     (0)  
   FeCl3           6.331e-27   6.347e-27   -26.199   -26.197     0.001     (0)  
Fe(2)         9.000e-12
   Fe+2            9.000e-12   5.984e-12   -11.046   -11.223    -0.177     (0)  
   FeOH+           2.101e-19   1.892e-19   -18.678   -18.723    -0.046     (0)  
   FeSO4           1.214e-21   1.217e-21   -20.916   -20.915     0.001     (0)  
   Fe(OH)2         1.605e-28   1.610e-28   -27.794   -27.793     0.001     (0)  
   Fe(OH)3-        6.640e-37   5.978e-37   -36.178   -36.223    -0.046     (0)  
   Fe(HS)2         0.000e+00   0.000e+00   -42.036   -42.035     0.001     (0)  
   Fe(HS)3-        0.000e+00   0.000e+00   -59.833   -59.879    -0.047     (0)  
Fe(3)         1.884e-21
   Fe+3            1.154e-21   4.955e-22   -20.938   -21.305    -0.367     (0)  
   FeOH+2          4.867e-22   3.198e-22   -21.313   -21.495    -0.182     (0)  
   FeCl+2          2.239e-22   1.471e-22   -21.650   -21.832    -0.182     (0)  
   Fe(OH)2+        1.174e-23   1.059e-23   -22.930   -22.975    -0.045     (0)  
   FeCl2+          7.173e-24   6.458e-24   -23.144   -23.190    -0.046     (0)  
   FeCl3           6.331e-27   6.347e-27   -26.199   -26.197     0.001     (0)  
   Fe(OH)3         1.240e-29   1.243e-29   -28.907   -28.905     0.001     (0)  
   FeSO4+          5.234e-30   4.713e-30   -29.281   -29.327    -0.046     (0)  
   Fe(OH)4-        1.379e-35   1.243e-35   -34.861   -34.906    -0.045     (0)  
   Fe(SO4)2-       1.898e-40   1.704e-40   -39.722   -39.769    -0.047     (0)  
   Fe2(OH)2+4      0.000e+00   0.000e+00   -40.813   -41.560    -0.747     (0)  
   Fe3(OH)4+5      0.000e+00   0.000e+00   -61.048   -62.216    -1.168     (0)  
H(0)          1.778e-13
   H2              8.890e-14   8.913e-14   -13.051   -13.050     0.001     (0)  
O(0)          0.000e+00
   O2              0.000e+00   0.000e+00   -66.281   -66.280     0.001     (0)  
S(-2)         1.147e-15
   H2S             1.147e-15   1.150e-15   -14.941   -14.939     0.001     (0)  
   HS-             1.468e-20   1.315e-20   -19.833   -19.881    -0.048     (0)  
   S5-2            5.137e-28   3.341e-28   -27.289   -27.476    -0.187     (0)  
   S4-2            2.997e-28   1.949e-28   -27.523   -27.710    -0.187     (0)  
   S6-2            2.659e-28   1.729e-28   -27.575   -27.762    -0.187     (0)  
   S-2             2.417e-31   1.588e-31   -30.617   -30.799    -0.182     (0)  
   S3-2            1.056e-31   6.869e-32   -30.976   -31.163    -0.187     (0)  
   S2-2            5.994e-33   3.898e-33   -32.222   -32.409    -0.187     (0)  
   Fe(HS)2         0.000e+00   0.000e+00   -42.036   -42.035     0.001     (0)  
   Fe(HS)3-        0.000e+00   0.000e+00   -59.833   -59.879    -0.047     (0)  
S(6)          2.999e-12
   SO4-2           1.764e-12   1.143e-12   -11.753   -11.942    -0.188     (0)  
   HSO4-           1.234e-12   1.110e-12   -11.909   -11.955    -0.046     (0)  
   FeSO4           1.214e-21   1.217e-21   -20.916   -20.915     0.001     (0)  
   FeSO4+          5.234e-30   4.713e-30   -29.281   -29.327    -0.046     (0)  
   Fe(SO4)2-       1.898e-40   1.704e-40   -39.722   -39.769    -0.047     (0)  

------------------------------Saturation indices-------------------------------

  Phase               SI** log IAP   log K(298 K,   1 atm)

  Fe(OH)2.7Cl0.3  -13.47    -16.51   -3.04  Fe(OH)2.7Cl0.3
  Fe2(SO4)3       -82.02    -78.44    3.58  Fe2(SO4)3
  Fe3(OH)8        -58.06    -37.83   20.22  Fe3(OH)8
  Ferrihydrite    -20.20    -15.31    4.89  Fe(OH)3
  FeS(ppt)        -25.19    -29.10   -3.92  FeS
  Goethite        -15.81    -15.31    0.50  FeOOH
  Greigite        -84.30    -99.29  -15.00  Fe3S4
  Hematite        -26.60    -30.61   -4.01  Fe2O3
  Jarosite-H      -65.70    -77.80  -12.10  (H3O)Fe3(SO4)2(OH)6
  Lepidocrocite   -16.68    -15.31    1.37  FeOOH
  Mackinawite     -26.97    -29.10   -2.14  FeS
  Maghemite       -37.00    -30.61    6.39  Fe2O3
  Magnetite       -41.57    -37.83    3.74  Fe3O4
  Melanterite     -20.70    -23.17   -2.47  FeSO4:7H2O
  O2(g)           -63.32     19.80   83.12  O2
  pe_fix           -2.95     -2.95    0.00  e-
  pH_fix           -2.00     -2.00    0.00  H+
  Pyrite          -24.31    -41.09  -16.78  FeS2
  Pyrrhotite      -25.93     -3.04   22.89  FeS
  Sulfur           -9.87    -11.98   -2.11  S

**For a gas, SI = log10(fugacity). Fugacity = pressure * phi / 1 atm.
  For ideal gases, phi = 1.

Reaction step 4.

Using solution 1.	PURE WATER
Using pure phase assemblage 1.	
Using reaction 1.	

Reaction 1.	

	  1.000e-12 moles of the following reaction have been added:

	                 Relative
	Reactant            moles

	Fe3S1                1.00000

	                 Relative
	Element             moles
	Fe                   3.00000
	S                    1.00000

-------------------------------Phase assemblage--------------------------------

                                                      Moles in assemblage
Phase               SI  log IAP  log K(T, P)   Initial       Final       Delta

Greigite          6.48     0.00     -6.48    0.000e+00           0   0.000e+00
Mackinawite     -26.72   -28.85     -2.14    0.000e+00           0   0.000e+00
Pyrite           10.37     0.00    -10.37    0.000e+00           0   0.000e+00
Pyrrhotite      -15.93     9.07     25.00    0.000e+00           0   0.000e+00
pH_fix           -2.00    -2.00      0.00
	 HCl                is reactant       9.989e+00   9.989e+00  -4.770e-12
pe_fix           -2.95    -2.95      0.00
	 O2                 is reactant       1.000e+01   1.000e+01  -2.998e-12

-----------------------------Solution composition------------------------------

	Elements           Molality       Moles

	Cl                1.099e-02   1.099e-02
	Fe                1.200e-11   1.200e-11
	S                 4.000e-12   4.000e-12

----------------------------Description of solution----------------------------

                                       pH  =   2.000      Charge balance
                                       pe  =   2.950      Adjusted to redox equilibrium
                        Activity of water  =   1.000
                 Ionic strength (mol/kgw)  =   1.099e-02
                       Mass of water (kg)  =   1.000e+00
                 Total alkalinity (eq/kg)  =  -1.099e-02
                         Temperature (°C)  =  25.00
                  Electrical balance (eq)  =   2.190e-11
 Percent error, 100*(Cat-|An|)/(Cat+|An|)  =   0.00
                               Iterations  =   4
                                  Total H  = 1.110234e+02
                                  Total O  = 5.550622e+01

----------------------------Distribution of species----------------------------

                                               Log       Log       Log    mole V
   Species          Molality    Activity  Molality  Activity     Gamma    cm³/mol

   H+              1.099e-02   1.000e-02    -1.959    -2.000    -0.041      0.00
   OH-             1.121e-12   1.004e-12   -11.950   -11.998    -0.048     (0)  
   H2O             5.551e+01   9.996e-01     1.744    -0.000     0.000     18.07
Cl            1.099e-02
   Cl-             1.099e-02   9.829e-03    -1.959    -2.007    -0.048     (0)  
   FeCl+2          2.985e-22   1.961e-22   -21.525   -21.708    -0.182     (0)  
   FeCl2+          9.564e-24   8.610e-24   -23.019   -23.065    -0.046     (0)  
   FeCl3           8.442e-27   8.463e-27   -26.074   -26.072     0.001     (0)  
Fe(2)         1.200e-11
   Fe+2            1.200e-11   7.979e-12   -10.921   -11.098    -0.177     (0)  
   FeOH+           2.802e-19   2.522e-19   -18.553   -18.598    -0.046     (0)  
   FeSO4           2.158e-21   2.163e-21   -20.666   -20.665     0.001     (0)  
   Fe(OH)2         2.141e-28   2.146e-28   -27.669   -27.668     0.001     (0)  
   Fe(OH)3-        8.853e-37   7.970e-37   -36.053   -36.099    -0.046     (0)  
   Fe(HS)2         0.000e+00   0.000e+00   -41.661   -41.660     0.001     (0)  
   Fe(HS)3-        0.000e+00   0.000e+00   -59.333   -59.380    -0.047     (0)  
Fe(3)         2.512e-21
   Fe+3            1.539e-21   6.606e-22   -20.813   -21.180    -0.367     (0)  
   FeOH+2          6.490e-22   4.264e-22   -21.188   -21.370    -0.182     (0)  
   FeCl+2          2.985e-22   1.961e-22   -21.525   -21.708    -0.182     (0)  
   Fe(OH)2+        1.566e-23   1.411e-23   -22.805   -22.850    -0.045     (0)  
   FeCl2+          9.564e-24   8.610e-24   -23.019   -23.065    -0.046     (0)  
   FeCl3           8.442e-27   8.463e-27   -26.074   -26.072     0.001     (0)  
   Fe(OH)3         1.653e-29   1.658e-29   -28.782   -28.781     0.001     (0)  
   FeSO4+          9.305e-30   8.378e-30   -29.031   -29.077    -0.046     (0)  
   Fe(OH)4-        1.838e-35   1.657e-35   -34.736   -34.781    -0.045     (0)  
   Fe(SO4)2-       4.498e-40   4.039e-40   -39.347   -39.394    -0.047     (0)  
   Fe2(OH)2+4      0.000e+00   0.000e+00   -40.563   -41.310    -0.747     (0)  
   Fe3(OH)4+5      0.000e+00   0.000e+00   -60.673   -61.841    -1.168     (0)  
H(0)          1.778e-13
   H2              8.890e-14   8.913e-14   -13.051   -13.050     0.001     (0)  
O(0)          0.000e+00
   O2              0.000e+00   0.000e+00   -66.281   -66.280     0.001     (0)  
S(-2)         1.529e-15
   H2S             1.529e-15   1.533e-15   -14.816   -14.815     0.001     (0)  
   HS-             1.957e-20   1.753e-20   -19.708   -19.756    -0.048     (0)  
   S5-2            6.849e-28   4.455e-28   -27.164   -27.351    -0.187     (0)  
   S4-2            3.996e-28   2.599e-28   -27.398   -27.585    -0.187     (0)  
   S6-2            3.545e-28   2.306e-28   -27.450   -27.637    -0.187     (0)  
   S-2             3.223e-31   2.117e-31   -30.492   -30.674    -0.182     (0)  
   S3-2            1.408e-31   9.158e-32   -30.851   -31.038    -0.187     (0)  
   S2-2            7.992e-33   5.198e-33   -32.097   -32.284    -0.187     (0)  
   Fe(HS)2         0.000e+00   0.000e+00   -41.661   -41.660     0.001     (0)  
   Fe(HS)3-        0.000e+00   0.000e+00   -59.333   -59.380    -0.047     (0)  
S(6)          3.998e-12
   SO4-2           2.353e-12   1.525e-12   -11.628   -11.817    -0.188     (0)  
   HSO4-           1.646e-12   1.479e-12   -11.784   -11.830    -0.046     (0)  
   FeSO4           2.158e-21   2.163e-21   -20.666   -20.665     0.001     (0)  
   FeSO4+          9.305e-30   8.378e-30   -29.031   -29.077    -0.046     (0)  
   Fe(SO4)2-       4.498e-40   4.039e-40   -39.347   -39.394    -0.047     (0)  

------------------------------Saturation indices-------------------------------

  Phase               SI** log IAP   log K(298 K,   1 atm)

  Fe(OH)2.7Cl0.3  -13.34    -16.38   -3.04  Fe(OH)2.7Cl0.3
  Fe2(SO4)3       -81.39    -77.81    3.58  Fe2(SO4)3
  Fe3(OH)8        -57.68    -37.46   20.22  Fe3(OH)8
  Ferrihydrite    -20.07    -15.18    4.89  Fe(OH)3
  FeS(ppt)        -24.94    -28.85   -3.92  FeS
  Goethite        -15.68    -15.18    0.50  FeOOH
  Greigite        -83.42    -98.42  -15.00  Fe3S4
  Hematite        -26.35    -30.36   -4.01  Fe2O3
  Jarosite-H      -65.07    -77.17  -12.10  (H3O)Fe3(SO4)2(OH)6
  Lepidocrocite   -16.55    -15.18    1.37  FeOOH
  Mackinawite     -26.72    -28.85   -2.14  FeS
  Maghemite       -36.75    -30.36    6.39  Fe2O3
  Magnetite       -41.20    -37.46    3.74  Fe3O4
  Melanterite     -20.45    -22.92   -2.47  FeSO4:7H2O
  O2(g)           -63.32     19.80   83.12  O2
  pe_fix           -2.95     -2.95    0.00  e-
  pH_fix           -2.00     -2.00    0.00  H+
  Pyrite          -23.93    -40.71  -16.78  FeS2
  Pyrrhotite      -25.68     -2.79   22.89  FeS
  Sulfur           -9.75    -11.86   -2.11  S

**For a gas, SI = log10(fugacity). Fugacity = pressure * phi / 1 atm.
  For ideal gases, phi = 1.

Reaction step 5.

Using solution 1.	PURE WATER
Using pure phase assemblage 1.	
Using reaction 1.	

Reaction 1.	

	  1.000e-12 moles of the following reaction have been added:

	                 Relative
	Reactant            moles

	Fe3S1                1.00000

	                 Relative
	Element             moles
	Fe                   3.00000
	S                    1.00000

-------------------------------Phase assemblage--------------------------------

                                                      Moles in assemblage
Phase               SI  log IAP  log K(T, P)   Initial       Final       Delta

Greigite          6.48     0.00     -6.48    0.000e+00           0   0.000e+00
Mackinawite     -26.52   -28.66     -2.14    0.000e+00           0   0.000e+00
Pyrite           10.37     0.00    -10.37    0.000e+00           0   0.000e+00
Pyrrhotite      -15.83     9.16     25.00    0.000e+00           0   0.000e+00
pH_fix           -2.00    -2.00      0.00
	 HCl                is reactant       9.989e+00   9.989e+00  -4.770e-12
pe_fix           -2.95    -2.95      0.00
	 O2                 is reactant       1.000e+01   1.000e+01  -2.997e-12

-----------------------------Solution composition------------------------------

	Elements           Molality       Moles

	Cl                1.099e-02   1.099e-02
	Fe                1.500e-11   1.500e-11
	S                 5.000e-12   5.000e-12

----------------------------Description of solution----------------------------

                                       pH  =   2.000      Charge balance
                                       pe  =   2.950      Adjusted to redox equilibrium
                        Activity of water  =   1.000
                 Ionic strength (mol/kgw)  =   1.099e-02
                       Mass of water (kg)  =   1.000e+00
                 Total alkalinity (eq/kg)  =  -1.099e-02
                         Temperature (°C)  =  25.00
                  Electrical balance (eq)  =   2.190e-11
 Percent error, 100*(Cat-|An|)/(Cat+|An|)  =   0.00
                               Iterations  =   3
                                  Total H  = 1.110234e+02
                                  Total O  = 5.550622e+01

----------------------------Distribution of species----------------------------

                                               Log       Log       Log    mole V
   Species          Molality    Activity  Molality  Activity     Gamma    cm³/mol

   H+              1.099e-02   1.000e-02    -1.959    -2.000    -0.041      0.00
   OH-             1.121e-12   1.004e-12   -11.950   -11.998    -0.048     (0)  
   H2O             5.551e+01   9.996e-01     1.744    -0.000     0.000     18.07
Cl            1.099e-02
   Cl-             1.099e-02   9.829e-03    -1.959    -2.007    -0.048     (0)  
   FeCl+2          3.731e-22   2.451e-22   -21.428   -21.611    -0.182     (0)  
   FeCl2+          1.195e-23   1.076e-23   -22.922   -22.968    -0.046     (0)  
   FeCl3           1.055e-26   1.058e-26   -25.977   -25.976     0.001     (0)  
Fe(2)         1.500e-11
   Fe+2            1.500e-11   9.974e-12   -10.824   -11.001    -0.177     (0)  
   FeOH+           3.502e-19   3.153e-19   -18.456   -18.501    -0.046     (0)  
   FeSO4           3.372e-21   3.380e-21   -20.472   -20.471     0.001     (0)  
   Fe(OH)2         2.676e-28   2.683e-28   -27.573   -27.571     0.001     (0)  
   Fe(OH)3-        1.107e-36   9.963e-37   -35.956   -36.002    -0.046     (0)  
   Fe(HS)2         0.000e+00   0.000e+00   -41.371   -41.370     0.001     (0)  
   Fe(HS)3-        0.000e+00   0.000e+00   -58.945   -58.992    -0.047     (0)  
Fe(3)         3.140e-21
   Fe+3            1.924e-21   8.258e-22   -20.716   -21.083    -0.367     (0)  
   FeOH+2          8.112e-22   5.330e-22   -21.091   -21.273    -0.182     (0)  
   FeCl+2          3.731e-22   2.451e-22   -21.428   -21.611    -0.182     (0)  
   Fe(OH)2+        1.957e-23   1.764e-23   -22.708   -22.753    -0.045     (0)  
   FeCl2+          1.195e-23   1.076e-23   -22.922   -22.968    -0.046     (0)  
   FeCl3           1.055e-26   1.058e-26   -25.977   -25.976     0.001     (0)  
   Fe(OH)3         2.067e-29   2.072e-29   -28.685   -28.684     0.001     (0)  
   FeSO4+          1.454e-29   1.309e-29   -28.837   -28.883    -0.046     (0)  
   Fe(OH)4-        2.298e-35   2.071e-35   -34.639   -34.684    -0.045     (0)  
   Fe(SO4)2-       8.785e-40   7.889e-40   -39.056   -39.103    -0.047     (0)  
   Fe2(OH)2+4      0.000e+00   0.000e+00   -40.369   -41.117    -0.747     (0)  
   Fe3(OH)4+5      0.000e+00   0.000e+00   -60.382   -61.550    -1.168     (0)  
H(0)          1.778e-13
   H2              8.890e-14   8.913e-14   -13.051   -13.050     0.001     (0)  
O(0)          0.000e+00
   O2              0.000e+00   0.000e+00   -66.281   -66.280     0.001     (0)  
S(-2)         1.911e-15
   H2S             1.911e-15   1.916e-15   -14.719   -14.718     0.001     (0)  
   HS-             2.446e-20   2.191e-20   -19.612   -19.659    -0.048     (0)  
   S5-2            8.561e-28   5.568e-28   -27.067   -27.254    -0.187     (0)  
   S4-2            4.995e-28   3.249e-28   -27.301   -27.488    -0.187     (0)  
   S6-2            4.431e-28   2.882e-28   -27.353   -27.540    -0.187     (0)  
   S-2             4.029e-31   2.647e-31   -30.395   -30.577    -0.182     (0)  
   S3-2            1.760e-31   1.145e-31   -30.754   -30.941    -0.187     (0)  
   S2-2            9.989e-33   6.497e-33   -32.000   -32.187    -0.187     (0)  
   Fe(HS)2         0.000e+00   0.000e+00   -41.371   -41.370     0.001     (0)  
   Fe(HS)3-        0.000e+00   0.000e+00   -58.945   -58.992    -0.047     (0)  
S(6)          4.998e-12
   SO4-2           2.941e-12   1.906e-12   -11.532   -11.720    -0.188     (0)  
   HSO4-           2.057e-12   1.849e-12   -11.687   -11.733    -0.046     (0)  
   FeSO4           3.372e-21   3.380e-21   -20.472   -20.471     0.001     (0)  
   FeSO4+          1.454e-29   1.309e-29   -28.837   -28.883    -0.046     (0)  
   Fe(SO4)2-       8.785e-40   7.889e-40   -39.056   -39.103    -0.047     (0)  

------------------------------Saturation indices-------------------------------

  Phase               SI** log IAP   log K(298 K,   1 atm)

  Fe(OH)2.7Cl0.3  -13.25    -16.29   -3.04  Fe(OH)2.7Cl0.3
  Fe2(SO4)3       -80.91    -77.33    3.58  Fe2(SO4)3
  Fe3(OH)8        -57.39    -37.17   20.22  Fe3(OH)8
  Ferrihydrite    -19.97    -15.08    4.89  Fe(OH)3
  FeS(ppt)        -24.75    -28.66   -3.92  FeS
  Goethite        -15.58    -15.08    0.50  FeOOH
  Greigite        -82.74    -97.74  -15.00  Fe3S4
  Hematite        -26.16    -30.17   -4.01  Fe2O3
  Jarosite-H      -64.59    -76.69  -12.10  (H3O)Fe3(SO4)2(OH)6
  Lepidocrocite   -16.45    -15.08    1.37  FeOOH
  Mackinawite     -26.52    -28.66   -2.14  FeS
  Maghemite       -36.55    -30.17    6.39  Fe2O3
  Magnetite       -40.91    -37.17    3.74  Fe3O4
  Melanterite     -20.25    -22.72   -2.47  FeSO4:7H2O
  O2(g)           -63.32     19.80   83.12  O2
  pe_fix           -2.95     -2.95    0.00  e-
  pH_fix           -2.00     -2.00    0.00  H+
  Pyrite          -23.64    -40.42  -16.78  FeS2
  Pyrrhotite      -25.48     -2.60   22.89  FeS
  Sulfur           -9.65    -11.76   -2.11  S

**For a gas, SI = log10(fugacity). Fugacity = pressure * phi / 1 atm.
  For ideal gases, phi = 1.

Reaction step 6.

Using solution 1.	PURE WATER
Using pure phase assemblage 1.	
Using reaction 1.	

Reaction 1.	

	  1.000e-12 moles of the following reaction have been added:

	                 Relative
	Reactant            moles

	Fe3S1                1.00000

	                 Relative
	Element             moles
	Fe                   3.00000
	S                    1.00000

-------------------------------Phase assemblage--------------------------------

                                                      Moles in assemblage
Phase               SI  log IAP  log K(T, P)   Initial       Final       Delta

Greigite          6.48     0.00     -6.48    0.000e+00           0   0.000e+00
Mackinawite     -26.37   -28.50     -2.14    0.000e+00           0   0.000e+00
Pyrite           10.37     0.00    -10.37    0.000e+00           0   0.000e+00
Pyrrhotite      -15.75     9.24     25.00    0.000e+00           0   0.000e+00
pH_fix           -2.00    -2.00      0.00
	 HCl                is reactant       9.989e+00   9.989e+00  -4.770e-12
pe_fix           -2.95    -2.95      0.00
	 O2                 is reactant       1.000e+01   1.000e+01  -3.002e-12

-----------------------------Solution composition------------------------------

	Elements           Molality       Moles

	Cl                1.099e-02   1.099e-02
	Fe                1.800e-11   1.800e-11
	S                 6.000e-12   6.000e-12

----------------------------Description of solution----------------------------

                                       pH  =   2.000      Charge balance
                                       pe  =   2.950      Adjusted to redox equilibrium
                        Activity of water  =   1.000
                 Ionic strength (mol/kgw)  =   1.099e-02
                       Mass of water (kg)  =   1.000e+00
                 Total alkalinity (eq/kg)  =  -1.099e-02
                         Temperature (°C)  =  25.00
                  Electrical balance (eq)  =   2.190e-11
 Percent error, 100*(Cat-|An|)/(Cat+|An|)  =   0.00
                               Iterations  =   3
                                  Total H  = 1.110234e+02
                                  Total O  = 5.550622e+01

----------------------------Distribution of species----------------------------

                                               Log       Log       Log    mole V
   Species          Molality    Activity  Molality  Activity     Gamma    cm³/mol

   H+              1.099e-02   1.000e-02    -1.959    -2.000    -0.041      0.00
   OH-             1.121e-12   1.004e-12   -11.950   -11.998    -0.048     (0)  
   H2O             5.551e+01   9.996e-01     1.744    -0.000     0.000     18.07
Cl            1.099e-02
   Cl-             1.099e-02   9.829e-03    -1.959    -2.007    -0.048     (0)  
   FeCl+2          4.477e-22   2.942e-22   -21.349   -21.531    -0.182     (0)  
   FeCl2+          1.435e-23   1.292e-23   -22.843   -22.889    -0.046     (0)  
   FeCl3           1.266e-26   1.269e-26   -25.897   -25.896     0.001     (0)  
Fe(2)         1.800e-11
   Fe+2            1.800e-11   1.197e-11   -10.745   -10.922    -0.177     (0)  
   FeOH+           4.202e-19   3.784e-19   -18.377   -18.422    -0.046     (0)  
   FeSO4           4.855e-21   4.868e-21   -20.314   -20.313     0.001     (0)  
   Fe(OH)2         3.211e-28   3.219e-28   -27.493   -27.492     0.001     (0)  
   Fe(OH)3-        1.328e-36   1.196e-36   -35.877   -35.922    -0.046     (0)  
   Fe(HS)2         0.000e+00   0.000e+00   -41.133   -41.132     0.001     (0)  
   Fe(HS)3-        0.000e+00   0.000e+00   -58.629   -58.675    -0.047     (0)  
Fe(3)         3.768e-21
   Fe+3            2.309e-21   9.910e-22   -20.637   -21.004    -0.367     (0)  
   FeOH+2          9.735e-22   6.396e-22   -21.012   -21.194    -0.182     (0)  
   FeCl+2          4.477e-22   2.942e-22   -21.349   -21.531    -0.182     (0)  
   Fe(OH)2+        2.349e-23   2.117e-23   -22.629   -22.674    -0.045     (0)  
   FeCl2+          1.435e-23   1.292e-23   -22.843   -22.889    -0.046     (0)  
   FeCl3           1.266e-26   1.269e-26   -25.897   -25.896     0.001     (0)  
   Fe(OH)3         2.480e-29   2.486e-29   -28.606   -28.604     0.001     (0)  
   FeSO4+          2.094e-29   1.885e-29   -28.679   -28.725    -0.046     (0)  
   Fe(OH)4-        2.757e-35   2.485e-35   -34.560   -34.605    -0.045     (0)  
   Fe(SO4)2-       1.518e-39   1.363e-39   -38.819   -38.865    -0.047     (0)  
   Fe2(OH)2+4      0.000e+00   0.000e+00   -40.211   -40.958    -0.747     (0)  
   Fe3(OH)4+5      0.000e+00   0.000e+00   -60.145   -61.312    -1.168     (0)  
H(0)          1.778e-13
   H2              8.890e-14   8.913e-14   -13.051   -13.050     0.001     (0)  
O(0)          0.000e+00
   O2              0.000e+00   0.000e+00   -66.281   -66.280     0.001     (0)  
S(-2)         2.293e-15
   H2S             2.293e-15   2.299e-15   -14.640   -14.638     0.001     (0)  
   HS-             2.935e-20   2.630e-20   -19.532   -19.580    -0.048     (0)  
   S5-2            1.027e-27   6.682e-28   -26.988   -27.175    -0.187     (0)  
   S4-2            5.994e-28   3.899e-28   -27.222   -27.409    -0.187     (0)  
   S6-2            5.318e-28   3.459e-28   -27.274   -27.461    -0.187     (0)  
   S-2             4.834e-31   3.176e-31   -30.316   -30.498    -0.182     (0)  
   S3-2            2.112e-31   1.374e-31   -30.675   -30.862    -0.187     (0)  
   S2-2            1.199e-32   7.797e-33   -31.921   -32.108    -0.187     (0)  
   Fe(HS)2         0.000e+00   0.000e+00   -41.133   -41.132     0.001     (0)  
   Fe(HS)3-        0.000e+00   0.000e+00   -58.629   -58.675    -0.047     (0)  
S(6)          5.998e-12
   SO4-2           3.529e-12   2.287e-12   -11.452   -11.641    -0.188     (0)  
   HSO4-           2.469e-12   2.219e-12   -11.608   -11.654    -0.046     (0)  
   FeSO4           4.855e-21   4.868e-21   -20.314   -20.313     0.001     (0)  
   FeSO4+          2.094e-29   1.885e-29   -28.679   -28.725    -0.046     (0)  
   Fe(SO4)2-       1.518e-39   1.363e-39   -38.819   -38.865    -0.047     (0)  

------------------------------Saturation indices-------------------------------

  Phase               SI** log IAP   log K(298 K,   1 atm)

  Fe(OH)2.7Cl0.3  -13.17    -16.21   -3.04  Fe(OH)2.7Cl0.3
  Fe2(SO4)3       -80.51    -76.93    3.58  Fe2(SO4)3
  Fe3(OH)8        -57.15    -36.93   20.22  Fe3(OH)8
  Ferrihydrite    -19.90    -15.00    4.89  Fe(OH)3
  FeS(ppt)        -24.59    -28.50   -3.92  FeS
  Goethite        -15.50    -15.00    0.50  FeOOH
  Greigite        -82.19    -97.19  -15.00  Fe3S4
  Hematite        -26.00    -30.01   -4.01  Fe2O3
  Jarosite-H      -64.19    -76.29  -12.10  (H3O)Fe3(SO4)2(OH)6
  Lepidocrocite   -16.38    -15.00    1.37  FeOOH
  Mackinawite     -26.37    -28.50   -2.14  FeS
  Maghemite       -36.39    -30.01    6.39  Fe2O3
  Magnetite       -40.67    -36.93    3.74  Fe3O4
  Melanterite     -20.09    -22.56   -2.47  FeSO4:7H2O
  O2(g)           -63.32     19.80   83.12  O2
  pe_fix           -2.95     -2.95    0.00  e-
  pH_fix           -2.00     -2.00    0.00  H+
  Pyrite          -23.40    -40.18  -16.78  FeS2
  Pyrrhotite      -25.32     -2.44   22.89  FeS
  Sulfur           -9.57    -11.68   -2.11  S

**For a gas, SI = log10(fugacity). Fugacity = pressure * phi / 1 atm.
  For ideal gases, phi = 1.

Reaction step 7.

Using solution 1.	PURE WATER
Using pure phase assemblage 1.	
Using reaction 1.	

Reaction 1.	

	  1.000e-12 moles of the following reaction have been added:

	                 Relative
	Reactant            moles

	Fe3S1                1.00000

	                 Relative
	Element             moles
	Fe                   3.00000
	S                    1.00000

-------------------------------Phase assemblage--------------------------------

                                                      Moles in assemblage
Phase               SI  log IAP  log K(T, P)   Initial       Final       Delta

Greigite          6.48     0.00     -6.48    0.000e+00           0   0.000e+00
Mackinawite     -26.23   -28.37     -2.14    0.000e+00           0   0.000e+00
Pyrite           10.37     0.00    -10.37    0.000e+00           0   0.000e+00
Pyrrhotite      -15.69     9.31     25.00    0.000e+00           0   0.000e+00
pH_fix           -2.00    -2.00      0.00
	 HCl                is reactant       9.989e+00   9.989e+00  -4.770e-12
pe_fix           -2.95    -2.95      0.00
	 O2                 is reactant       1.000e+01   1.000e+01  -2.997e-12

-----------------------------Solution composition------------------------------

	Elements           Molality       Moles

	Cl                1.099e-02   1.099e-02
	Fe                2.100e-11   2.100e-11
	S                 7.000e-12   7.000e-12

----------------------------Description of solution----------------------------

                                       pH  =   2.000      Charge balance
                                       pe  =   2.950      Adjusted to redox equilibrium
                        Activity of water  =   1.000
                 Ionic strength (mol/kgw)  =   1.099e-02
                       Mass of water (kg)  =   1.000e+00
                 Total alkalinity (eq/kg)  =  -1.099e-02
                         Temperature (°C)  =  25.00
                  Electrical balance (eq)  =   2.190e-11
 Percent error, 100*(Cat-|An|)/(Cat+|An|)  =   0.00
                               Iterations  =   3
                                  Total H  = 1.110234e+02
                                  Total O  = 5.550622e+01

----------------------------Distribution of species----------------------------

                                               Log       Log       Log    mole V
   Species          Molality    Activity  Molality  Activity     Gamma    cm³/mol

   H+              1.099e-02   1.000e-02    -1.959    -2.000    -0.041      0.00
   OH-             1.121e-12   1.004e-12   -11.950   -11.998    -0.048     (0)  
   H2O             5.551e+01   9.996e-01     1.744    -0.000     0.000     18.07
Cl            1.099e-02
   Cl-             1.099e-02   9.829e-03    -1.959    -2.007    -0.048     (0)  
   FeCl+2          5.223e-22   3.432e-22   -21.282   -21.464    -0.182     (0)  
   FeCl2+          1.674e-23   1.507e-23   -22.776   -22.822    -0.046     (0)  
   FeCl3           1.477e-26   1.481e-26   -25.831   -25.829     0.001     (0)  
Fe(2)         2.100e-11
   Fe+2            2.100e-11   1.396e-11   -10.678   -10.855    -0.177     (0)  
   FeOH+           4.903e-19   4.414e-19   -18.310   -18.355    -0.046     (0)  
   FeSO4           6.609e-21   6.625e-21   -20.180   -20.179     0.001     (0)  
   Fe(OH)2         3.746e-28   3.756e-28   -27.426   -27.425     0.001     (0)  
   Fe(OH)3-        1.549e-36   1.395e-36   -35.810   -35.855    -0.046     (0)  
   Fe(HS)2         0.000e+00   0.000e+00   -40.932   -40.931     0.001     (0)  
   Fe(HS)3-        0.000e+00   0.000e+00   -58.361   -58.407    -0.047     (0)  
Fe(3)         4.396e-21
   Fe+3            2.693e-21   1.156e-21   -20.570   -20.937    -0.367     (0)  
   FeOH+2          1.136e-21   7.462e-22   -20.945   -21.127    -0.182     (0)  
   FeCl+2          5.223e-22   3.432e-22   -21.282   -21.464    -0.182     (0)  
   Fe(OH)2+        2.740e-23   2.470e-23   -22.562   -22.607    -0.045     (0)  
   FeCl2+          1.674e-23   1.507e-23   -22.776   -22.822    -0.046     (0)  
   FeCl3           1.477e-26   1.481e-26   -25.831   -25.829     0.001     (0)  
   Fe(OH)3         2.893e-29   2.901e-29   -28.539   -28.537     0.001     (0)  
   FeSO4+          2.850e-29   2.566e-29   -28.545   -28.591    -0.046     (0)  
   Fe(OH)4-        3.217e-35   2.900e-35   -34.493   -34.538    -0.045     (0)  
   Fe(SO4)2-       2.411e-39   2.165e-39   -38.618   -38.665    -0.047     (0)  
   Fe2(OH)2+4      0.000e+00   0.000e+00   -40.077   -40.824    -0.747     (0)  
   Fe3(OH)4+5      0.000e+00   0.000e+00   -59.944   -61.112    -1.168     (0)  
H(0)          1.778e-13
   H2              8.890e-14   8.913e-14   -13.051   -13.050     0.001     (0)  
O(0)          0.000e+00
   O2              0.000e+00   0.000e+00   -66.281   -66.280     0.001     (0)  
S(-2)         2.676e-15
   H2S             2.676e-15   2.682e-15   -14.573   -14.571     0.001     (0)  
   HS-             3.424e-20   3.068e-20   -19.465   -19.513    -0.048     (0)  
   S5-2            1.199e-27   7.796e-28   -26.921   -27.108    -0.187     (0)  
   S4-2            6.993e-28   4.548e-28   -27.155   -27.342    -0.187     (0)  
   S6-2            6.204e-28   4.035e-28   -27.207   -27.394    -0.187     (0)  
   S-2             5.640e-31   3.706e-31   -30.249   -30.431    -0.182     (0)  
   S3-2            2.464e-31   1.603e-31   -30.608   -30.795    -0.187     (0)  
   S2-2            1.399e-32   9.096e-33   -31.854   -32.041    -0.187     (0)  
   Fe(HS)2         0.000e+00   0.000e+00   -40.932   -40.931     0.001     (0)  
   Fe(HS)3-        0.000e+00   0.000e+00   -58.361   -58.407    -0.047     (0)  
S(6)          6.997e-12
   SO4-2           4.117e-12   2.668e-12   -11.385   -11.574    -0.188     (0)  
   HSO4-           2.880e-12   2.589e-12   -11.541   -11.587    -0.046     (0)  
   FeSO4           6.609e-21   6.625e-21   -20.180   -20.179     0.001     (0)  
   FeSO4+          2.850e-29   2.566e-29   -28.545   -28.591    -0.046     (0)  
   Fe(SO4)2-       2.411e-39   2.165e-39   -38.618   -38.665    -0.047     (0)  

------------------------------Saturation indices-------------------------------

  Phase               SI** log IAP   log K(298 K,   1 atm)

  Fe(OH)2.7Cl0.3  -13.10    -16.14   -3.04  Fe(OH)2.7Cl0.3
  Fe2(SO4)3       -80.18    -76.60    3.58  Fe2(SO4)3
  Fe3(OH)8        -56.95    -36.73   20.22  Fe3(OH)8
  Ferrihydrite    -19.83    -14.94    4.89  Fe(OH)3
  FeS(ppt)        -24.45    -28.37   -3.92  FeS
  Goethite        -15.44    -14.94    0.50  FeOOH
  Greigite        -81.72    -96.72  -15.00  Fe3S4
  Hematite        -25.87    -29.87   -4.01  Fe2O3
  Jarosite-H      -63.86    -75.96  -12.10  (H3O)Fe3(SO4)2(OH)6
  Lepidocrocite   -16.31    -14.94    1.37  FeOOH
  Mackinawite     -26.23    -28.37   -2.14  FeS
  Maghemite       -36.26    -29.87    6.39  Fe2O3
  Magnetite       -40.47    -36.73    3.74  Fe3O4
  Melanterite     -19.96    -22.43   -2.47  FeSO4:7H2O
  O2(g)           -63.32     19.80   83.12  O2
  pe_fix           -2.95     -2.95    0.00  e-
  pH_fix           -2.00     -2.00    0.00  H+
  Pyrite          -23.20    -39.98  -16.78  FeS2
  Pyrrhotite      -25.19     -2.30   22.89  FeS
  Sulfur           -9.50    -11.61   -2.11  S

**For a gas, SI = log10(fugacity). Fugacity = pressure * phi / 1 atm.
  For ideal gases, phi = 1.

Reaction step 8.

Using solution 1.	PURE WATER
Using pure phase assemblage 1.	
Using reaction 1.	

Reaction 1.	

	  1.000e-12 moles of the following reaction have been added:

	                 Relative
	Reactant            moles

	Fe3S1                1.00000

	                 Relative
	Element             moles
	Fe                   3.00000
	S                    1.00000

-------------------------------Phase assemblage--------------------------------

                                                      Moles in assemblage
Phase               SI  log IAP  log K(T, P)   Initial       Final       Delta

Greigite          6.48     0.00     -6.48    0.000e+00           0   0.000e+00
Mackinawite     -26.12   -28.25     -2.14    0.000e+00           0   0.000e+00
Pyrite           10.37     0.00    -10.37    0.000e+00           0   0.000e+00
Pyrrhotite      -15.63     9.37     25.00    0.000e+00           0   0.000e+00
pH_fix           -2.00    -2.00      0.00
	 HCl                is reactant       9.989e+00   9.989e+00  -4.770e-12
pe_fix           -2.95    -2.95      0.00
	 O2                 is reactant       1.000e+01   1.000e+01  -3.000e-12

-----------------------------Solution composition------------------------------

	Elements           Molality       Moles

	Cl                1.099e-02   1.099e-02
	Fe                2.400e-11   2.400e-11
	S                 8.000e-12   8.000e-12

----------------------------Description of solution----------------------------

                                       pH  =   2.000      Charge balance
                                       pe  =   2.950      Adjusted to redox equilibrium
                        Activity of water  =   1.000
                 Ionic strength (mol/kgw)  =   1.099e-02
                       Mass of water (kg)  =   1.000e+00
                 Total alkalinity (eq/kg)  =  -1.099e-02
                         Temperature (°C)  =  25.00
                  Electrical balance (eq)  =   2.190e-11
 Percent error, 100*(Cat-|An|)/(Cat+|An|)  =   0.00
                               Iterations  =   3
                                  Total H  = 1.110234e+02
                                  Total O  = 5.550622e+01

----------------------------Distribution of species----------------------------

                                               Log       Log       Log    mole V
   Species          Molality    Activity  Molality  Activity     Gamma    cm³/mol

   H+              1.099e-02   1.000e-02    -1.959    -2.000    -0.041      0.00
   OH-             1.121e-12   1.004e-12   -11.950   -11.998    -0.048     (0)  
   H2O             5.551e+01   9.996e-01     1.744    -0.000     0.000     18.07
Cl            1.099e-02
   Cl-             1.099e-02   9.829e-03    -1.959    -2.007    -0.048     (0)  
   FeCl+2          5.970e-22   3.922e-22   -21.224   -21.406    -0.182     (0)  
   FeCl2+          1.913e-23   1.722e-23   -22.718   -22.764    -0.046     (0)  
   FeCl3           1.688e-26   1.693e-26   -25.773   -25.771     0.001     (0)  
Fe(2)         2.400e-11
   Fe+2            2.400e-11   1.596e-11   -10.620   -10.797    -0.177     (0)  
   FeOH+           5.603e-19   5.045e-19   -18.252   -18.297    -0.046     (0)  
   FeSO4           8.632e-21   8.654e-21   -20.064   -20.063     0.001     (0)  
   Fe(OH)2         4.281e-28   4.292e-28   -27.368   -27.367     0.001     (0)  
   Fe(OH)3-        1.771e-36   1.594e-36   -35.752   -35.797    -0.046     (0)  
   Fe(HS)2         0.000e+00   0.000e+00   -40.758   -40.757     0.001     (0)  
   Fe(HS)3-        0.000e+00   0.000e+00   -58.129   -58.175    -0.047     (0)  
Fe(3)         5.023e-21
   Fe+3            3.078e-21   1.321e-21   -20.512   -20.879    -0.367     (0)  
   FeOH+2          1.298e-21   8.528e-22   -20.887   -21.069    -0.182     (0)  
   FeCl+2          5.970e-22   3.922e-22   -21.224   -21.406    -0.182     (0)  
   Fe(OH)2+        3.131e-23   2.823e-23   -22.504   -22.549    -0.045     (0)  
   FeCl2+          1.913e-23   1.722e-23   -22.718   -22.764    -0.046     (0)  
   FeCl3           1.688e-26   1.693e-26   -25.773   -25.771     0.001     (0)  
   FeSO4+          3.722e-29   3.351e-29   -28.429   -28.475    -0.046     (0)  
   Fe(OH)3         3.307e-29   3.315e-29   -28.481   -28.479     0.001     (0)  
   Fe(OH)4-        3.676e-35   3.314e-35   -34.435   -34.480    -0.045     (0)  
   Fe(SO4)2-       3.598e-39   3.231e-39   -38.444   -38.491    -0.047     (0)  
   Fe2(OH)2+4      1.094e-40   0.000e+00   -39.961   -40.708    -0.747     (0)  
   Fe3(OH)4+5      0.000e+00   0.000e+00   -59.770   -60.938    -1.168     (0)  
H(0)          1.778e-13
   H2              8.890e-14   8.913e-14   -13.051   -13.050     0.001     (0)  
O(0)          0.000e+00
   O2              0.000e+00   0.000e+00   -66.281   -66.280     0.001     (0)  
S(-2)         3.058e-15
   H2S             3.058e-15   3.066e-15   -14.515   -14.513     0.001     (0)  
   HS-             3.913e-20   3.506e-20   -19.407   -19.455    -0.048     (0)  
   S5-2            1.370e-27   8.909e-28   -26.863   -27.050    -0.187     (0)  
   S4-2            7.992e-28   5.198e-28   -27.097   -27.284    -0.187     (0)  
   S6-2            7.090e-28   4.612e-28   -27.149   -27.336    -0.187     (0)  
   S-2             6.446e-31   4.235e-31   -30.191   -30.373    -0.182     (0)  
   S3-2            2.816e-31   1.832e-31   -30.550   -30.737    -0.187     (0)  
   S2-2            1.598e-32   1.040e-32   -31.796   -31.983    -0.187     (0)  
   Fe(HS)2         0.000e+00   0.000e+00   -40.758   -40.757     0.001     (0)  
   Fe(HS)3-        0.000e+00   0.000e+00   -58.129   -58.175    -0.047     (0)  
S(6)          7.997e-12
   SO4-2           4.705e-12   3.049e-12   -11.327   -11.516    -0.188     (0)  
   HSO4-           3.292e-12   2.959e-12   -11.483   -11.529    -0.046     (0)  
   FeSO4           8.632e-21   8.654e-21   -20.064   -20.063     0.001     (0)  
   FeSO4+          3.722e-29   3.351e-29   -28.429   -28.475    -0.046     (0)  
   Fe(SO4)2-       3.598e-39   3.231e-39   -38.444   -38.491    -0.047     (0)  

------------------------------Saturation indices-------------------------------

  Phase               SI** log IAP   log K(298 K,   1 atm)

  Fe(OH)2.7Cl0.3  -13.04    -16.08   -3.04  Fe(OH)2.7Cl0.3
  Fe2(SO4)3       -79.89    -76.31    3.58  Fe2(SO4)3
  Fe3(OH)8        -56.78    -36.56   20.22  Fe3(OH)8
  Ferrihydrite    -19.77    -14.88    4.89  Fe(OH)3
  FeS(ppt)        -24.34    -28.25   -3.92  FeS
  Goethite        -15.38    -14.88    0.50  FeOOH
  Greigite        -81.31    -96.31  -15.00  Fe3S4
  Hematite        -25.75    -29.76   -4.01  Fe2O3
  Jarosite-H      -63.57    -75.67  -12.10  (H3O)Fe3(SO4)2(OH)6
  Lepidocrocite   -16.25    -14.88    1.37  FeOOH
  Mackinawite     -26.12    -28.25   -2.14  FeS
  Maghemite       -36.14    -29.76    6.39  Fe2O3
  Magnetite       -40.29    -36.56    3.74  Fe3O4
  Melanterite     -19.84    -22.31   -2.47  FeSO4:7H2O
  O2(g)           -63.32     19.80   83.12  O2
  pe_fix           -2.95     -2.95    0.00  e-
  pH_fix           -2.00     -2.00    0.00  H+
  Pyrite          -23.03    -39.81  -16.78  FeS2
  Pyrrhotite      -25.07     -2.19   22.89  FeS
  Sulfur           -9.45    -11.56   -2.11  S

**For a gas, SI = log10(fugacity). Fugacity = pressure * phi / 1 atm.
  For ideal gases, phi = 1.

Reaction step 9.

Using solution 1.	PURE WATER
Using pure phase assemblage 1.	
Using reaction 1.	

Reaction 1.	

	  1.000e-12 moles of the following reaction have been added:

	                 Relative
	Reactant            moles

	Fe3S1                1.00000

	                 Relative
	Element             moles
	Fe                   3.00000
	S                    1.00000

-------------------------------Phase assemblage--------------------------------

                                                      Moles in assemblage
Phase               SI  log IAP  log K(T, P)   Initial       Final       Delta

Greigite          6.48     0.00     -6.48    0.000e+00           0   0.000e+00
Mackinawite     -26.01   -28.15     -2.14    0.000e+00           0   0.000e+00
Pyrite           10.37     0.00    -10.37    0.000e+00           0   0.000e+00
Pyrrhotite      -15.58     9.42     25.00    0.000e+00           0   0.000e+00
pH_fix           -2.00    -2.00      0.00
	 HCl                is reactant       9.989e+00   9.989e+00  -4.770e-12
pe_fix           -2.95    -2.95      0.00
	 O2                 is reactant       1.000e+01   1.000e+01  -2.998e-12

-----------------------------Solution composition------------------------------

	Elements           Molality       Moles

	Cl                1.099e-02   1.099e-02
	Fe                2.700e-11   2.700e-11
	S                 9.000e-12   9.000e-12

----------------------------Description of solution----------------------------

                                       pH  =   2.000      Charge balance
                                       pe  =   2.950      Adjusted to redox equilibrium
                        Activity of water  =   1.000
                 Ionic strength (mol/kgw)  =   1.099e-02
                       Mass of water (kg)  =   1.000e+00
                 Total alkalinity (eq/kg)  =  -1.099e-02
                         Temperature (°C)  =  25.00
                  Electrical balance (eq)  =   2.190e-11
 Percent error, 100*(Cat-|An|)/(Cat+|An|)  =   0.00
                               Iterations  =   3
                                  Total H  = 1.110234e+02
                                  Total O  = 5.550622e+01

----------------------------Distribution of species----------------------------

                                               Log       Log       Log    mole V
   Species          Molality    Activity  Molality  Activity     Gamma    cm³/mol

   H+              1.099e-02   1.000e-02    -1.959    -2.000    -0.041      0.00
   OH-             1.121e-12   1.004e-12   -11.950   -11.998    -0.048     (0)  
   H2O             5.551e+01   9.996e-01     1.744    -0.000     0.000     18.07
Cl            1.099e-02
   Cl-             1.099e-02   9.829e-03    -1.959    -2.007    -0.048     (0)  
   FeCl+2          6.716e-22   4.412e-22   -21.173   -21.355    -0.182     (0)  
   FeCl2+          2.152e-23   1.937e-23   -22.667   -22.713    -0.046     (0)  
   FeCl3           1.899e-26   1.904e-26   -25.721   -25.720     0.001     (0)  
Fe(2)         2.700e-11
   Fe+2            2.700e-11   1.795e-11   -10.569   -10.746    -0.177     (0)  
   FeOH+           6.304e-19   5.675e-19   -18.200   -18.246    -0.046     (0)  
   FeSO4           1.092e-20   1.095e-20   -19.962   -19.961     0.001     (0)  
   Fe(OH)2         4.816e-28   4.829e-28   -27.317   -27.316     0.001     (0)  
   Fe(OH)3-        1.992e-36   1.793e-36   -35.701   -35.746    -0.046     (0)  
   Fe(HS)2         0.000e+00   0.000e+00   -40.605   -40.604     0.001     (0)  
   Fe(HS)3-        0.000e+00   0.000e+00   -57.924   -57.971    -0.047     (0)  
Fe(3)         5.651e-21
   Fe+3            3.463e-21   1.486e-21   -20.461   -20.828    -0.367     (0)  
   FeOH+2          1.460e-21   9.594e-22   -20.836   -21.018    -0.182     (0)  
   FeCl+2          6.716e-22   4.412e-22   -21.173   -21.355    -0.182     (0)  
   Fe(OH)2+        3.523e-23   3.176e-23   -22.453   -22.498    -0.045     (0)  
   FeCl2+          2.152e-23   1.937e-23   -22.667   -22.713    -0.046     (0)  
   FeCl3           1.899e-26   1.904e-26   -25.721   -25.720     0.001     (0)  
   FeSO4+          4.711e-29   4.241e-29   -28.327   -28.373    -0.046     (0)  
   Fe(OH)3         3.720e-29   3.730e-29   -28.429   -28.428     0.001     (0)  
   Fe(OH)4-        4.136e-35   3.728e-35   -34.383   -34.429    -0.045     (0)  
   Fe(SO4)2-       5.123e-39   4.601e-39   -38.290   -38.337    -0.047     (0)  
   Fe2(OH)2+4      1.384e-40   0.000e+00   -39.859   -40.606    -0.747     (0)  
   Fe3(OH)4+5      0.000e+00   0.000e+00   -59.617   -60.784    -1.168     (0)  
H(0)          1.778e-13
   H2              8.890e-14   8.913e-14   -13.051   -13.050     0.001     (0)  
O(0)          0.000e+00
   O2              0.000e+00   0.000e+00   -66.281   -66.280     0.001     (0)  
S(-2)         3.440e-15
   H2S             3.440e-15   3.449e-15   -14.463   -14.462     0.001     (0)  
   HS-             4.403e-20   3.945e-20   -19.356   -19.404    -0.048     (0)  
   S5-2            1.541e-27   1.002e-27   -26.812   -26.999    -0.187     (0)  
   S4-2            8.991e-28   5.848e-28   -27.046   -27.233    -0.187     (0)  
   S6-2            7.977e-28   5.188e-28   -27.098   -27.285    -0.187     (0)  
   S-2             7.251e-31   4.764e-31   -30.140   -30.322    -0.182     (0)  
   S3-2            3.168e-31   2.061e-31   -30.499   -30.686    -0.187     (0)  
   S2-2            1.798e-32   1.169e-32   -31.745   -31.932    -0.187     (0)  
   Fe(HS)2         0.000e+00   0.000e+00   -40.605   -40.604     0.001     (0)  
   Fe(HS)3-        0.000e+00   0.000e+00   -57.924   -57.971    -0.047     (0)  
S(6)          8.997e-12
   SO4-2           5.293e-12   3.430e-12   -11.276   -11.465    -0.188     (0)  
   HSO4-           3.703e-12   3.329e-12   -11.431   -11.478    -0.046     (0)  
   FeSO4           1.092e-20   1.095e-20   -19.962   -19.961     0.001     (0)  
   FeSO4+          4.711e-29   4.241e-29   -28.327   -28.373    -0.046     (0)  
   Fe(SO4)2-       5.123e-39   4.601e-39   -38.290   -38.337    -0.047     (0)  

------------------------------Saturation indices-------------------------------

  Phase               SI** log IAP   log K(298 K,   1 atm)

  Fe(OH)2.7Cl0.3  -12.99    -16.03   -3.04  Fe(OH)2.7Cl0.3
  Fe2(SO4)3       -79.63    -76.05    3.58  Fe2(SO4)3
  Fe3(OH)8        -56.62    -36.40   20.22  Fe3(OH)8
  Ferrihydrite    -19.72    -14.83    4.89  Fe(OH)3
  FeS(ppt)        -24.23    -28.15   -3.92  FeS
  Goethite        -15.33    -14.83    0.50  FeOOH
  Greigite        -80.96    -95.95  -15.00  Fe3S4
  Hematite        -25.65    -29.66   -4.01  Fe2O3
  Jarosite-H      -63.31    -75.41  -12.10  (H3O)Fe3(SO4)2(OH)6
  Lepidocrocite   -16.20    -14.83    1.37  FeOOH
  Mackinawite     -26.01    -28.15   -2.14  FeS
  Maghemite       -36.04    -29.66    6.39  Fe2O3
  Magnetite       -40.14    -36.40    3.74  Fe3O4
  Melanterite     -19.74    -22.21   -2.47  FeSO4:7H2O
  O2(g)           -63.32     19.80   83.12  O2
  pe_fix           -2.95     -2.95    0.00  e-
  pH_fix           -2.00     -2.00    0.00  H+
  Pyrite          -22.88    -39.65  -16.78  FeS2
  Pyrrhotite      -24.97     -2.09   22.89  FeS
  Sulfur           -9.39    -11.50   -2.11  S

**For a gas, SI = log10(fugacity). Fugacity = pressure * phi / 1 atm.
  For ideal gases, phi = 1.

Reaction step 10.

Using solution 1.	PURE WATER
Using pure phase assemblage 1.	
Using reaction 1.	

Reaction 1.	

	  1.000e-12 moles of the following reaction have been added:

	                 Relative
	Reactant            moles

	Fe3S1                1.00000

	                 Relative
	Element             moles
	Fe                   3.00000
	S                    1.00000

-------------------------------Phase assemblage--------------------------------

                                                      Moles in assemblage
Phase               SI  log IAP  log K(T, P)   Initial       Final       Delta

Greigite          6.48     0.00     -6.48    0.000e+00           0   0.000e+00
Mackinawite     -25.92   -28.06     -2.14    0.000e+00           0   0.000e+00
Pyrite           10.37     0.00    -10.37    0.000e+00           0   0.000e+00
Pyrrhotite      -15.53     9.46     25.00    0.000e+00           0   0.000e+00
pH_fix           -2.00    -2.00      0.00
	 HCl                is reactant       9.989e+00   9.989e+00  -4.770e-12
pe_fix           -2.95    -2.95      0.00
	 O2                 is reactant       1.000e+01   1.000e+01  -2.997e-12

-----------------------------Solution composition------------------------------

	Elements           Molality       Moles

	Cl                1.099e-02   1.099e-02
	Fe                3.000e-11   3.000e-11
	S                 1.000e-11   1.000e-11

----------------------------Description of solution----------------------------

                                       pH  =   2.000      Charge balance
                                       pe  =   2.950      Adjusted to redox equilibrium
                        Activity of water  =   1.000
                 Ionic strength (mol/kgw)  =   1.099e-02
                       Mass of water (kg)  =   1.000e+00
                 Total alkalinity (eq/kg)  =  -1.099e-02
                         Temperature (°C)  =  25.00
                  Electrical balance (eq)  =   2.190e-11
 Percent error, 100*(Cat-|An|)/(Cat+|An|)  =   0.00
                               Iterations  =   3
                                  Total H  = 1.110234e+02
                                  Total O  = 5.550622e+01

----------------------------Distribution of species----------------------------

                                               Log       Log       Log    mole V
   Species          Molality    Activity  Molality  Activity     Gamma    cm³/mol

   H+              1.099e-02   1.000e-02    -1.959    -2.000    -0.041      0.00
   OH-             1.121e-12   1.004e-12   -11.950   -11.998    -0.048     (0)  
   H2O             5.551e+01   9.996e-01     1.744    -0.000     0.000     18.07
Cl            1.099e-02
   Cl-             1.099e-02   9.829e-03    -1.959    -2.007    -0.048     (0)  
   FeCl+2          7.462e-22   4.903e-22   -21.127   -21.310    -0.182     (0)  
[...]
   HSO4-           6.780e-16   4.385e-16   -15.169   -15.358    -0.189     (0)  
   FeSO4+          7.455e-25   4.944e-25   -24.128   -24.306    -0.178     (0)  
   Fe(SO4)2-       9.457e-33   7.064e-33   -32.024   -32.151    -0.127     (0)  

------------------------------Saturation indices-------------------------------

  Phase               SI** log IAP   log K(298 K,   1 atm)

  Fe(OH)2.7Cl0.3    5.58      2.54   -3.04  Fe(OH)2.7Cl0.3
  Fe2(SO4)3       -69.38    -65.80    3.58  Fe2(SO4)3
  Fe3(OH)8          4.69     24.91   20.22  Fe3(OH)8
  Ferrihydrite      0.21      5.10    4.89  Fe(OH)3
  FeS(ppt)         -0.56     -4.47   -3.92  FeS
  Goethite          4.61      5.11    0.50  FeOOH
  Greigite        -10.73    -25.73  -15.00  Fe3S4
  Halite           -8.30     -6.72    1.58  NaCl
  Hematite         14.23     10.22   -4.01  Fe2O3
  Jarosite-H      -23.27    -35.37  -12.10  (H3O)Fe3(SO4)2(OH)6
  Jarosite-Na     -22.32    -33.52  -11.20  NaFe3(SO4)2(OH)6
  Lepidocrocite     3.74      5.11    1.37  FeOOH
  Mackinawite      -2.34     -4.47   -2.14  FeS
  Maghemite         3.84     10.22    6.39  Fe2O3
  Magnetite        21.19     24.93    3.74  Fe3O4
  Melanterite      -8.20    -10.67   -2.47  FeSO4:7H2O
  Mirabilite      -20.59    -21.70   -1.11  Na2SO4:10H2O
  NaCl             13.28     -6.72  -20.00  NaCl
  NaNO3           -67.99    -87.99  -20.00  NaNO3
  O2(g)           -69.37     13.75   83.12  O2
  pe_fix            4.56      4.56    0.00  e-
  pH_fix           -8.00     -8.00    0.00  H+
  Pyrite            0.00    -16.78  -16.78  FeS2
  Pyrrhotite       -1.30     21.59   22.89  FeS
  Sulfur          -10.19    -12.30   -2.11  S
  Thenardite      -21.47    -21.65   -0.18  Na2SO4

**For a gas, SI = log10(fugacity). Fugacity = pressure * phi / 1 atm.
  For ideal gases, phi = 1.

Reaction step 109.

WARNING: Maximum iterations exceeded, 100

WARNING: Numerical method failed with this set of convergence parameters.

WARNING: Trying smaller step size, pe step size 10, 5 ... 

Using solution 1.	PURE WATER
Using pure phase assemblage 1.	
Using reaction 1.	

Reaction 1.	

	  1.000e-02 moles of the following reaction have been added:

	                 Relative
	Reactant            moles

	Fe3S1                1.00000

	                 Relative
	Element             moles
	Fe                   3.00000
	S                    1.00000

-------------------------------Phase assemblage--------------------------------

                                                      Moles in assemblage
Phase               SI  log IAP  log K(T, P)   Initial       Final       Delta

Greigite          6.48     0.00     -6.48    0.000e+00           0   0.000e+00
Mackinawite      -2.32    -4.46     -2.14    0.000e+00           0   0.000e+00
NaNO3           -68.00   -88.00    -20.00    0.000e+00           0   0.000e+00
Pyrite           10.37     0.00    -10.37    4.556e-02   5.056e-02   5.000e-03
Pyrrhotite        8.93    33.93     25.00    0.000e+00           0   0.000e+00
pH_fix           -8.00    -8.00      0.00
	 HCl                is reactant       9.547e+00   9.497e+00  -4.979e-02
pe_fix            4.56     4.56      0.00
	 O2                 is reactant       9.886e+00   9.874e+00  -1.250e-02

-----------------------------Solution composition------------------------------

	Elements           Molality       Moles

	Cl                5.007e-01   5.029e-01
	Fe                2.516e-01   2.528e-01
	N                 9.955e-07   1.000e-06
	Na                9.955e-07   1.000e-06
	S                 6.717e-09   6.747e-09

----------------------------Description of solution----------------------------

                                       pH  =   8.000      Charge balance
                                       pe  =  -4.560      Adjusted to redox equilibrium
                        Activity of water  =   0.987
                 Ionic strength (mol/kgw)  =   7.497e-01
                       Mass of water (kg)  =   1.005e+00
                 Total alkalinity (eq/kg)  =   2.636e-03
                         Temperature (°C)  =  25.00
                  Electrical balance (eq)  =  -1.750e-10
 Percent error, 100*(Cat-|An|)/(Cat+|An|)  =  -0.00
                               Iterations  =   7 (108 overall)
                                  Total H  = 1.115153e+02
                                  Total O  = 5.575899e+01

----------------------------Distribution of species----------------------------

                                               Log       Log       Log    mole V
   Species          Molality    Activity  Molality  Activity     Gamma    cm³/mol

   OH-             1.651e-06   9.918e-07    -5.782    -6.004    -0.221     (0)  
   H+              1.331e-08   1.000e-08    -7.876    -8.000    -0.124      0.00
   H2O             5.551e+01   9.872e-01     1.744    -0.006     0.000     18.07
Cl            5.007e-01
   Cl-             5.007e-01   2.968e-01    -0.300    -0.527    -0.227     (0)  
   FeCl+2          6.813e-18   1.271e-18   -17.167   -17.896    -0.729     (0)  
   FeCl2+          2.564e-18   1.685e-18   -17.591   -17.773    -0.182     (0)  
   FeCl3           4.208e-20   5.001e-20   -19.376   -19.301     0.075     (0)  
Fe(2)         2.516e-01
   Fe+2            2.490e-01   5.541e-02    -0.604    -1.256    -0.653     (0)  
   FeOH+           2.632e-03   1.730e-03    -2.580    -2.762    -0.182     (0)  
   Fe(OH)2         1.223e-06   1.453e-06    -5.913    -5.838     0.075     (0)  
   Fe(OH)3-        8.112e-09   5.331e-09    -8.091    -8.273    -0.182     (0)  
   FeSO4           3.590e-09   4.267e-09    -8.445    -8.370     0.075     (0)  
   Fe(HS)2         1.646e-15   1.956e-15   -14.784   -14.709     0.075     (0)  
   Fe(HS)3-        1.775e-24   1.340e-24   -23.751   -23.873    -0.122     (0)  
Fe(3)         1.235e-08
   Fe(OH)4-        5.051e-09   3.382e-09    -8.297    -8.471    -0.174     (0)  
   Fe(OH)2+        4.411e-09   2.954e-09    -8.355    -8.530    -0.174     (0)  
   Fe(OH)3         2.883e-09   3.426e-09    -8.540    -8.465     0.075     (0)  
   FeOH+2          4.845e-13   9.036e-14   -12.315   -13.044    -0.729     (0)  
   FeCl+2          6.813e-18   1.271e-18   -17.167   -17.896    -0.729     (0)  
   FeCl2+          2.564e-18   1.685e-18   -17.591   -17.773    -0.182     (0)  
   Fe+3            1.854e-18   1.418e-19   -17.732   -18.848    -1.116     (0)  
   FeCl3           4.208e-20   5.001e-20   -19.376   -19.301     0.075     (0)  
   Fe2(OH)2+4      1.966e-23   2.198e-25   -22.707   -24.658    -1.952     (0)  
   FeSO4+          7.770e-25   5.106e-25   -24.110   -24.292    -0.182     (0)  
   Fe3(OH)4+5      1.519e-28   1.356e-31   -27.818   -30.868    -3.049     (0)  
   Fe(SO4)2-       9.259e-33   6.992e-33   -32.033   -32.155    -0.122     (0)  
H(0)          1.571e-10
   H2              7.853e-11   9.333e-11   -10.105   -10.030     0.075     (0)  
N(-3)         9.955e-07
   NH4+            9.698e-07   5.353e-07    -6.013    -6.271    -0.258     (0)  
   NH3             2.567e-08   3.051e-08    -7.591    -7.516     0.075     (0)  
   NH4SO4-         4.544e-15   2.986e-15   -14.343   -14.525    -0.182     (0)  
N(3)          0.000e+00
   NO2-            0.000e+00   0.000e+00   -60.028   -60.150    -0.122     (0)  
N(5)          0.000e+00
   NO3-            0.000e+00   0.000e+00   -81.607   -81.845    -0.238     (0)  
Na            9.955e-07
   Na+             9.955e-07   7.042e-07    -6.002    -6.152    -0.150     (0)  
   NaSO4-          2.282e-15   1.528e-15   -14.642   -14.816    -0.174     (0)  
O(0)          0.000e+00
   O2              0.000e+00   0.000e+00   -72.406   -72.331     0.075     (0)  
S(-2)         1.608e-11
   HS-             1.048e-11   6.293e-12   -10.980   -11.201    -0.221     (0)  
   S5-2            4.918e-13   1.599e-13   -12.308   -12.796    -0.488     (0)  
   H2S             4.630e-13   5.502e-13   -12.334   -12.259     0.075     (0)  
   S4-2            2.869e-13   9.330e-14   -12.542   -13.030    -0.488     (0)  
   S6-2            2.545e-13   8.277e-14   -12.594   -13.082    -0.488     (0)  
   Fe(HS)2         1.646e-15   1.956e-15   -14.784   -14.709     0.075     (0)  
   S-2             4.075e-16   7.601e-17   -15.390   -16.119    -0.729     (0)  
   S3-2            1.011e-16   3.288e-17   -15.995   -16.483    -0.488     (0)  
   S2-2            5.738e-18   1.866e-18   -17.241   -17.729    -0.488     (0)  
   Fe(HS)3-        1.775e-24   1.340e-24   -23.751   -23.873    -0.122     (0)  
S(6)          6.701e-09
   FeSO4           3.590e-09   4.267e-09    -8.445    -8.370     0.075     (0)  
   SO4-2           3.110e-09   4.330e-10    -8.507    -9.363    -0.856     (0)  
   NH4SO4-         4.544e-15   2.986e-15   -14.343   -14.525    -0.182     (0)  
   NaSO4-          2.282e-15   1.528e-15   -14.642   -14.816    -0.174     (0)  
   HSO4-           6.564e-16   4.202e-16   -15.183   -15.377    -0.194     (0)  
   FeSO4+          7.770e-25   5.106e-25   -24.110   -24.292    -0.182     (0)  
   Fe(SO4)2-       9.259e-33   6.992e-33   -32.033   -32.155    -0.122     (0)  

------------------------------Saturation indices-------------------------------

  Phase               SI** log IAP   log K(298 K,   1 atm)

  Fe(OH)2.7Cl0.3    5.62      2.58   -3.04  Fe(OH)2.7Cl0.3
  Fe2(SO4)3       -69.37    -65.79    3.58  Fe2(SO4)3
  Fe3(OH)8          4.78     25.00   20.22  Fe3(OH)8
  Ferrihydrite      0.24      5.13    4.89  Fe(OH)3
  FeS(ppt)         -0.54     -4.46   -3.92  FeS
  Goethite          4.64      5.14    0.50  FeOOH
  Greigite        -10.70    -25.69  -15.00  Fe3S4
  Halite           -8.26     -6.68    1.58  NaCl
  Hematite         14.29     10.29   -4.01  Fe2O3
  Jarosite-H      -23.21    -35.31  -12.10  (H3O)Fe3(SO4)2(OH)6
  Jarosite-Na     -22.26    -33.46  -11.20  NaFe3(SO4)2(OH)6
  Lepidocrocite     3.77      5.14    1.37  FeOOH
  Mackinawite      -2.32     -4.46   -2.14  FeS
  Maghemite         3.90     10.29    6.39  Fe2O3
  Magnetite        21.29     25.02    3.74  Fe3O4
  Melanterite      -8.19    -10.66   -2.47  FeSO4:7H2O
  Mirabilite      -20.61    -21.72   -1.11  Na2SO4:10H2O
  NaCl             13.32     -6.68  -20.00  NaCl
  NaNO3           -68.00    -88.00  -20.00  NaNO3
  O2(g)           -69.37     13.75   83.12  O2
  pe_fix            4.56      4.56    0.00  e-
  pH_fix           -8.00     -8.00    0.00  H+
  Pyrite            0.00    -16.78  -16.78  FeS2
  Pyrrhotite       -1.28     21.61   22.89  FeS
  Sulfur          -10.21    -12.32   -2.11  S
  Thenardite      -21.49    -21.67   -0.18  Na2SO4

**For a gas, SI = log10(fugacity). Fugacity = pressure * phi / 1 atm.
  For ideal gases, phi = 1.

Reaction step 110.

Using solution 1.	PURE WATER
Using pure phase assemblage 1.	
Using reaction 1.	

Reaction 1.	

	  1.000e-02 moles of the following reaction have been added:

	                 Relative
	Reactant            moles

	Fe3S1                1.00000

	                 Relative
	Element             moles
	Fe                   3.00000
	S                    1.00000

-------------------------------Phase assemblage--------------------------------

                                                      Moles in assemblage
Phase               SI  log IAP  log K(T, P)   Initial       Final       Delta

Greigite          6.48     0.00     -6.48    0.000e+00           0   0.000e+00
Mackinawite      -2.31    -4.44     -2.14    0.000e+00           0   0.000e+00
NaNO3           -68.01   -88.01    -20.00    0.000e+00           0   0.000e+00
Pyrite           10.37     0.00    -10.37    5.056e-02   5.556e-02   5.000e-03
Pyrrhotite        8.96    33.96     25.00    0.000e+00           0   0.000e+00
pH_fix           -8.00    -8.00      0.00
	 HCl                is reactant       9.497e+00   9.447e+00  -4.979e-02
pe_fix            4.56     4.56      0.00
	 O2                 is reactant       9.874e+00   9.861e+00  -1.250e-02

-----------------------------Solution composition------------------------------

	Elements           Molality       Moles

	Cl                5.500e-01   5.527e-01
	Fe                2.764e-01   2.778e-01
	N                 9.951e-07   1.000e-06
	Na                9.951e-07   1.000e-06
	S                 6.789e-09   6.822e-09

----------------------------Description of solution----------------------------

                                       pH  =   8.000      Charge balance
                                       pe  =  -4.560      Adjusted to redox equilibrium
                        Activity of water  =   0.986
                 Ionic strength (mol/kgw)  =   8.236e-01
                       Mass of water (kg)  =   1.005e+00
                 Total alkalinity (eq/kg)  =   2.841e-03
                         Temperature (°C)  =  25.00
                  Electrical balance (eq)  =  -1.729e-10
 Percent error, 100*(Cat-|An|)/(Cat+|An|)  =  -0.00
                               Iterations  =   4
                                  Total H  = 1.115651e+02
                                  Total O  = 5.578399e+01

----------------------------Distribution of species----------------------------

                                               Log       Log       Log    mole V
   Species          Molality    Activity  Molality  Activity     Gamma    cm³/mol

   OH-             1.669e-06   9.905e-07    -5.778    -6.004    -0.227     (0)  
   H+              1.336e-08   1.000e-08    -7.874    -8.000    -0.126      0.00
   H2O             5.551e+01   9.860e-01     1.744    -0.006     0.000     18.07
Cl            5.500e-01
   Cl-             5.500e-01   3.224e-01    -0.260    -0.492    -0.232     (0)  
   FeCl+2          8.183e-18   1.478e-18   -17.087   -17.830    -0.743     (0)  
   FeCl2+          3.264e-18   2.128e-18   -17.486   -17.672    -0.186     (0)  
   FeCl3           5.674e-20   6.859e-20   -19.246   -19.164     0.082     (0)  
Fe(2)         2.764e-01
   Fe+2            2.736e-01   5.931e-02    -0.563    -1.227    -0.664     (0)  
   FeOH+           2.837e-03   1.849e-03    -2.547    -2.733    -0.186     (0)  
   Fe(OH)2         1.284e-06   1.552e-06    -5.891    -5.809     0.082     (0)  
   Fe(OH)3-        8.721e-09   5.685e-09    -8.059    -8.245    -0.186     (0)  
   FeSO4           3.633e-09   4.392e-09    -8.440    -8.357     0.082     (0)  
   Fe(HS)2         1.618e-15   1.956e-15   -14.791   -14.709     0.082     (0)  
   Fe(HS)3-        1.695e-24   1.295e-24   -23.771   -23.888    -0.117     (0)  
Fe(3)         1.319e-08
   Fe(OH)4-        5.419e-09   3.602e-09    -8.266    -8.443    -0.177     (0)  
   Fe(OH)2+        4.745e-09   3.154e-09    -8.324    -8.501    -0.177     (0)  
   Fe(OH)3         3.023e-09   3.654e-09    -8.520    -8.437     0.082     (0)  
   FeOH+2          5.350e-13   9.661e-14   -12.272   -13.015    -0.743     (0)  
   FeCl+2          8.183e-18   1.478e-18   -17.087   -17.830    -0.743     (0)  
   FeCl2+          3.264e-18   2.128e-18   -17.486   -17.672    -0.186     (0)  
   Fe+3            2.052e-18   1.518e-19   -17.688   -18.819    -1.131     (0)  
   FeCl3           5.674e-20   6.859e-20   -19.246   -19.164     0.082     (0)  
   Fe2(OH)2+4      1.846e-23   2.512e-25   -22.734   -24.600    -1.866     (0)  
   FeSO4+          8.063e-25   5.256e-25   -24.093   -24.279    -0.186     (0)  
   Fe3(OH)4+5      1.364e-28   1.655e-31   -27.865   -30.781    -2.916     (0)  
   Fe(SO4)2-       9.053e-33   6.921e-33   -32.043   -32.160    -0.117     (0)  
H(0)          1.544e-10
   H2              7.720e-11   9.333e-11   -10.112   -10.030     0.082     (0)  
N(-3)         9.951e-07
   NH4+            9.702e-07   5.268e-07    -6.013    -6.278    -0.265     (0)  
   NH3             2.484e-08   3.002e-08    -7.605    -7.523     0.082     (0)  
   NH4SO4-         4.335e-15   2.826e-15   -14.363   -14.549    -0.186     (0)  
N(3)          0.000e+00
   NO2-            0.000e+00   0.000e+00   -60.041   -60.158    -0.117     (0)  
N(5)          0.000e+00
   NO3-            0.000e+00   0.000e+00   -81.609   -81.854    -0.244     (0)  
Na            9.951e-07
   Na+             9.951e-07   7.055e-07    -6.002    -6.151    -0.149     (0)  
   NaSO4-          2.215e-15   1.472e-15   -14.655   -14.832    -0.177     (0)  
O(0)          0.000e+00
   O2              0.000e+00   0.000e+00   -72.415   -72.332     0.082     (0)  
S(-2)         1.541e-11
   HS-             1.025e-11   6.083e-12   -10.989   -11.216    -0.227     (0)  
   S5-2            4.525e-13   1.546e-13   -12.344   -12.811    -0.467     (0)  
   H2S             4.400e-13   5.318e-13   -12.357   -12.274     0.082     (0)  
   S4-2            2.640e-13   9.017e-14   -12.578   -13.045    -0.467     (0)  
   S6-2            2.342e-13   8.000e-14   -12.630   -13.097    -0.467     (0)  
   Fe(HS)2         1.618e-15   1.956e-15   -14.791   -14.709     0.082     (0)  
   S-2             4.069e-16   7.347e-17   -15.391   -16.134    -0.743     (0)  
   S3-2            9.303e-17   3.177e-17   -16.031   -16.498    -0.467     (0)  
   S2-2            5.280e-18   1.803e-18   -17.277   -17.744    -0.467     (0)  
   Fe(HS)3-        1.695e-24   1.295e-24   -23.771   -23.888    -0.117     (0)  
S(6)          6.773e-09
   FeSO4           3.633e-09   4.392e-09    -8.440    -8.357     0.082     (0)  
   SO4-2           3.140e-09   4.164e-10    -8.503    -9.380    -0.877     (0)  
   NH4SO4-         4.335e-15   2.826e-15   -14.363   -14.549    -0.186     (0)  
   NaSO4-          2.215e-15   1.472e-15   -14.655   -14.832    -0.177     (0)  
   HSO4-           6.370e-16   4.041e-16   -15.196   -15.394    -0.198     (0)  
   FeSO4+          8.063e-25   5.256e-25   -24.093   -24.279    -0.186     (0)  
   Fe(SO4)2-       9.053e-33   6.921e-33   -32.043   -32.160    -0.117     (0)  

------------------------------Saturation indices-------------------------------

  Phase               SI** log IAP   log K(298 K,   1 atm)

  Fe(OH)2.7Cl0.3    5.66      2.62   -3.04  Fe(OH)2.7Cl0.3
  Fe2(SO4)3       -69.36    -65.78    3.58  Fe2(SO4)3
  Fe3(OH)8          4.86     25.09   20.22  Fe3(OH)8
  Ferrihydrite      0.27      5.16    4.89  Fe(OH)3
  FeS(ppt)         -0.53     -4.44   -3.92  FeS
  Goethite          4.67      5.17    0.50  FeOOH
  Greigite        -10.67    -25.66  -15.00  Fe3S4
  Halite           -8.23     -6.64    1.58  NaCl
  Hematite         14.35     10.34   -4.01  Fe2O3
  Jarosite-H      -23.16    -35.26  -12.10  (H3O)Fe3(SO4)2(OH)6
  Jarosite-Na     -22.21    -33.41  -11.20  NaFe3(SO4)2(OH)6
  Lepidocrocite     3.80      5.17    1.37  FeOOH
  Mackinawite      -2.31     -4.44   -2.14  FeS
  Maghemite         3.96     10.34    6.39  Fe2O3
  Magnetite        21.37     25.11    3.74  Fe3O4
  Melanterite      -8.18    -10.65   -2.47  FeSO4:7H2O
  Mirabilite      -20.63    -21.74   -1.11  Na2SO4:10H2O
  NaCl             13.36     -6.64  -20.00  NaCl
  NaNO3           -68.01    -88.01  -20.00  NaNO3
  O2(g)           -69.37     13.75   83.12  O2
  pe_fix            4.56      4.56    0.00  e-
  pH_fix           -8.00     -8.00    0.00  H+
  Pyrite            0.00    -16.78  -16.78  FeS2
  Pyrrhotite       -1.26     21.62   22.89  FeS
  Sulfur          -10.23    -12.34   -2.11  S
  Thenardite      -21.50    -21.68   -0.18  Na2SO4

**For a gas, SI = log10(fugacity). Fugacity = pressure * phi / 1 atm.
  For ideal gases, phi = 1.

------------------
End of simulation.
------------------

------------------------------------
Reading input data for simulation 6.
------------------------------------

-------------------------------
End of Run after 1.738 Seconds.
-------------------------------

