   Input file: C:\Users\jt2020\OneDrive - Imperial College London\Data\Thermodynamics\Thermodynamics\Phreeq\Reaction Progress\Changing temp\S0\S0 input S dominant.pqi
  Output file: C:\Users\jt2020\OneDrive - Imperial College London\Data\Thermodynamics\Thermodynamics\Phreeq\Reaction Progress\Changing temp\S0\S0 input S dominant.pqo
Database file: C:\Users\jt2020\OneDrive - Imperial College London\Data\Thermodynamics\Thermodynamics\Phreeq\Reaction Progress\All models with pyrrhotite\Database\llnlpyrrminteq.dat

------------------
Reading data base.
------------------

	SOLUTION_MASTER_SPECIES
	SOLUTION_SPECIES
	SOLUTION_SPECIES
	PHASES
	SURFACE_MASTER_SPECIES
	SURFACE_SPECIES
	END
------------------------------------
Reading input data for simulation 1.
------------------------------------

	DATABASE C:\Users\jt2020\OneDrive - Imperial College London\Data\Thermodynamics\Thermodynamics\Phreeq\Reaction Progress\All models with pyrrhotite\Database\llnlpyrrminteq.dat
	TITLE S0 pH 2 pe 2.95
	SOLUTION 1  PURE WATER
	            pH    2 charge
	          temp   25.0
	           pe     2.95
	PHASES
	       pH_fix
	                H + = H +
	                log_k = 0.0
	       pe_fix
	                e- = e-
	                log_k 0.0
	Sulfur
	    S + 2H+ + 2e- = H2S
	    log_k     4.843
	    delta_h   -9.23 kcal
	Pyrrhotite
	    FeS + 2Fe+3 = 3Fe+2 + Sulfur(s)   #reaction from Belzile et al 04 pyrr oxidation reaction
	    log_k     24.9953
	    delta_h        -17.9906 kcal      
	Mackinawite
	    FeS + 2H+ = Fe+2 + H2S
	    log_k     4.850
	    delta_h        -8.901 kcal
	Greigite
	    Fe3S4 = 3Mackinawite(s) + Sulfur(s)
	    log_k     -6.476
	    delta_h   37.637 kcal
	Pyrite
	    FeS2 = 0.3333333333Greigite(s) + 0.6666666666Sulfur(s)
	    log_k     -10.373
	    delta_h   7.061 kcal
	NaNO3
	    NaNO3 = Na+ + NO3-
	    log_K -20
	NaCl
	    NaCl = Cl- + Na+
	    log_k     -20
	END
-----
TITLE
-----

 S0 pH 2 pe 2.95

-------------------------------------------
Beginning of initial solution calculations.
-------------------------------------------

Initial solution 1.	PURE WATER

-----------------------------Solution composition------------------------------

	Elements           Molality       Moles

	Pure water     

----------------------------Description of solution----------------------------

                                       pH  =   6.999      Charge balance
                                       pe  =   2.950    
                        Activity of water  =   1.000
                 Ionic strength (mol/kgw)  =   1.003e-07
                       Mass of water (kg)  =   1.000e+00
                 Total alkalinity (eq/kg)  =   2.263e-21
                         Temperature (°C)  =  25.00
                  Electrical balance (eq)  =  -2.263e-21
 Percent error, 100*(Cat-|An|)/(Cat+|An|)  =  -0.00
                               Iterations  =  15
                                  Total H  = 1.110124e+02
                                  Total O  = 5.550622e+01

----------------------------Distribution of species----------------------------

                                               Log       Log       Log    mole V
   Species          Molality    Activity  Molality  Activity     Gamma    cm³/mol

   OH-             1.003e-07   1.002e-07    -6.999    -6.999    -0.000     (0)  
   H+              1.003e-07   1.002e-07    -6.999    -6.999    -0.000      0.00
   H2O             5.551e+01   1.000e+00     1.744    -0.000     0.000     18.07
H(0)          1.791e-23
   H2              8.954e-24   8.954e-24   -23.048   -23.048     0.000     (0)  
O(0)          0.000e+00
   O2              0.000e+00   0.000e+00   -46.284   -46.284     0.000     (0)  

------------------------------Saturation indices-------------------------------

  Phase               SI** log IAP   log K(298 K,   1 atm)

  O2(g)           -43.32     39.80   83.12  O2
  pe_fix           -2.95     -2.95    0.00  e-
  pH_fix           -7.00     -7.00    0.00  H+

**For a gas, SI = log10(fugacity). Fugacity = pressure * phi / 1 atm.
  For ideal gases, phi = 1.

------------------
End of simulation.
------------------

------------------------------------
Reading input data for simulation 2.
------------------------------------

	INCREMENTAL_REACTIONS
	REACTION
	Fe1S3 1
	10*1e-12 10*1e-11 10*1e-10 10*1e-9 10*1e-8 10*1e-7 10*1e-6 10*1e-5 10*1e-4  10*1e-3  10*1e-2 mol
	USE solution 1
	EQUILIBRIUM_PHASES 1
	        Mackinawite     0.0     0.0 
	        Greigite        0.0     0.0
	        Pyrite          0.0     0.0
	        Pyrrhotite      0.0     0.0
	USER_GRAPH 1 Simulation 6
	    -headings               Pyrite Greigite Mackinawite Pyrrhotite
	    -axis_titles            "Fe and S added, Log moles" "Mineral, moles"
	    -chart_title            "S dominant system with S0 as the oxidant"
	    -axis_scale sy_axis     auto auto auto auto log
	    -initial_solutions      false
	    -connect_simulations    false
	    -axis_scale y_axis      auto auto auto auto Log
	    -axis_scale sy_axis	    auto auto auto auto Log
	    -plot_concentration_vs  x
	  -start
	 5 PUT(GET(1) + RXN, 1)
	  20 PLOT_XY log10(GET(1)), EQUI("Pyrite") color = Green, line_w = 0,   	symbol = Plus, symbol_size = 5, y_axis = 2
	  30 PLOT_XY log10(GET(1)), EQUI("Greigite") color = Blue, line_w = 0,   	symbol = Plus, symbol_size = 5, y_axis = 2
	  40 PLOT_XY log10(GET(1)), EQUI("Mackinawite") color = Cyan, line_w = 0,   	symbol = Plus, symbol_size = 5, y_axis = 2
	  50 PLOT_XY log10(GET(1)), EQUI("Pyrrhotite") color = Red, line_w = 0,   	symbol = Plus, symbol_size = 5, y_axis = 2
	  -end
	    -active                 true
	SELECTED_OUTPUT
	    file                 S0 S dominated pH 2 oxic H2S RT.csv
	    saturation_indices   Mackinawite  Greigite  Pyrite Pyrrhotite
	    reaction             
	    totals               Fe S 
	    equilibrium_phases   Mackinawite  Greigite  Pyrite Pyrrhotite
	TITLE S0 pH 2 pe 2.95
	SOLUTION 1  PURE WATER
	            pH    2 charge
	          temp   100.0
	           pe     2.95
	PHASES
	       pH_fix
	                H + = H +
	                log_k = 0.0
	       pe_fix
	                e- = e-
	                log_k 0.0
	Sulfur
	    S + 2H+ + 2e- = H2S
	    log_k     4.843
	    delta_h   -9.23 kcal
	Pyrrhotite
	    FeS + 2Fe+3 = 3Fe+2 + Sulfur(s)   #reaction from Belzile et al 04 pyrr oxidation reaction
	    log_k     24.9953
	    delta_h        -17.9906 kcal      
	Mackinawite
	    FeS + 2H+ = Fe+2 + H2S
	    log_k     4.850
	    delta_h        -8.901 kcal
	Greigite
	    Fe3S4 = 3Mackinawite(s) + Sulfur(s)
	    log_k     -6.476
	    delta_h   37.637 kcal
	Pyrite
	    FeS2 = 0.3333333333Greigite(s) + 0.6666666666Sulfur(s)
	    log_k     -10.373
	    delta_h   7.061 kcal
	NaNO3
	    NaNO3 = Na+ + NO3-
	    log_K -20
	NaCl
	    NaCl = Cl- + Na+
	    log_k     -20
	END
-----
TITLE
-----

 S0 pH 2 pe 2.95

-------------------------------------------
Beginning of initial solution calculations.
-------------------------------------------

Initial solution 1.	PURE WATER

-----------------------------Solution composition------------------------------

	Elements           Molality       Moles

	Pure water     

----------------------------Description of solution----------------------------

                                       pH  =   6.016      Charge balance
                                       pe  =   2.950    
                        Activity of water  =   1.000
                 Ionic strength (mol/kgw)  =   9.652e-07
                       Mass of water (kg)  =   1.000e+00
                 Total alkalinity (eq/kg)  =   1.906e-21
                         Temperature (°C)  = 100.00
                  Electrical balance (eq)  =  -1.906e-21
 Percent error, 100*(Cat-|An|)/(Cat+|An|)  =  -0.00
                               Iterations  =  13
                                  Total H  = 1.110124e+02
                                  Total O  = 5.550622e+01

----------------------------Distribution of species----------------------------

                                               Log       Log       Log    mole V
   Species          Molality    Activity  Molality  Activity     Gamma    cm³/mol

   OH-             9.652e-07   9.639e-07    -6.015    -6.016    -0.001     (0)  
   H+              9.652e-07   9.639e-07    -6.015    -6.016    -0.001      0.00
   H2O             5.551e+01   1.000e+00     1.744    -0.000     0.000     18.80
H(0)          9.118e-22
   H2              4.559e-22   4.559e-22   -21.341   -21.341     0.000     (0)  
O(0)          8.764e-31
   O2              4.382e-31   4.382e-31   -30.358   -30.358     0.000     (0)  

------------------------------Saturation indices-------------------------------

  Phase               SI** log IAP   log K(373 K,   1 atm)

  O2(g)           -27.54     35.86   63.40  O2
  pe_fix           -2.95     -2.95    0.00  e-
  pH_fix           -6.02     -6.02    0.00  H+

**For a gas, SI = log10(fugacity). Fugacity = pressure * phi / 1 atm.
  For ideal gases, phi = 1.

-----------------------------------------
Beginning of batch-reaction calculations.
-----------------------------------------

Reaction step 1.

Using solution 1.	PURE WATER
Using pure phase assemblage 1.	
Using reaction 1.	

Reaction 1.	

	  1.000e-12 moles of the following reaction have been added:

	                 Relative
	Reactant            moles

	Fe1S3                1.00000

	                 Relative
	Element             moles
	Fe                   1.00000
	S                    3.00000

-------------------------------Phase assemblage--------------------------------

                                                      Moles in assemblage
Phase               SI  log IAP  log K(T, P)   Initial       Final       Delta

Greigite          0.93     0.00     -0.93    0.000e+00           0   0.000e+00
Mackinawite     -26.12   -22.58      3.54    0.000e+00           0   0.000e+00
Pyrite            9.33     0.00     -9.33    0.000e+00           0   0.000e+00
Pyrrhotite       -6.80    15.54     22.34    0.000e+00           0   0.000e+00

-----------------------------Solution composition------------------------------

	Elements           Molality       Moles

	Fe                1.000e-12   1.000e-12
	S                 3.000e-12   3.000e-12

----------------------------Description of solution----------------------------

                                       pH  =   6.016      Charge balance
                                       pe  =  -2.220      Adjusted to redox equilibrium
                        Activity of water  =   1.000
                 Ionic strength (mol/kgw)  =   9.652e-07
                       Mass of water (kg)  =   1.000e+00
                 Total alkalinity (eq/kg)  =  -4.000e-12
                         Temperature (°C)  = 100.00
                  Electrical balance (eq)  =  -2.822e-21
 Percent error, 100*(Cat-|An|)/(Cat+|An|)  =  -0.00
                               Iterations  =  24
                                  Total H  = 1.110124e+02
                                  Total O  = 5.550622e+01

----------------------------Distribution of species----------------------------

                                               Log       Log       Log    mole V
   Species          Molality    Activity  Molality  Activity     Gamma    cm³/mol

   H+              9.652e-07   9.639e-07    -6.015    -6.016    -0.001      0.00
   OH-             9.652e-07   9.639e-07    -6.015    -6.016    -0.001     (0)  
   H2O             5.551e+01   1.000e+00     1.744    -0.000     0.000     18.80
Fe(2)         1.000e-12
   Fe+2            9.720e-13   9.668e-13   -12.012   -12.015    -0.002     (0)  
   FeOH+           2.795e-14   2.791e-14   -13.554   -13.554    -0.001     (0)  
   Fe(OH)2         4.525e-17   4.525e-17   -16.344   -16.344     0.000     (0)  
   Fe(OH)3-        3.146e-21   3.142e-21   -20.502   -20.503    -0.001     (0)  
   FeSO4           1.533e-21   1.533e-21   -20.814   -20.814     0.000     (0)  
   Fe(HS)2         0.000e+00   0.000e+00   -49.277   -49.277     0.000     (0)  
   Fe(HS)3-        0.000e+00   0.000e+00   -70.346   -70.347    -0.001     (0)  
Fe(3)         4.118e-20
   Fe(OH)2+        3.704e-20   3.699e-20   -19.431   -19.432    -0.001     (0)  
   FeOH+2          3.686e-21   3.666e-21   -20.433   -20.436    -0.002     (0)  
   Fe(OH)3         4.509e-22   4.509e-22   -21.346   -21.346     0.000     (0)  
   Fe(OH)4-        4.685e-24   4.678e-24   -23.329   -23.330    -0.001     (0)  
   Fe+3            1.627e-26   1.608e-26   -25.789   -25.794    -0.005     (0)  
   FeSO4+          1.504e-33   1.502e-33   -32.823   -32.823    -0.001     (0)  
   Fe2(OH)2+4      0.000e+00   0.000e+00   -40.507   -40.517    -0.009     (0)  
   Fe(SO4)2-       0.000e+00   0.000e+00   -42.747   -42.747    -0.001     (0)  
   Fe3(OH)4+5      0.000e+00   0.000e+00   -57.496   -57.511    -0.015     (0)  
H(0)          1.999e-11
   H2              9.993e-12   9.993e-12   -11.000   -11.000     0.000     (0)  
O(0)          0.000e+00
   O2              0.000e+00   0.000e+00   -51.040   -51.040     0.000     (0)  
S(-2)         3.325e-23
   H2S             2.503e-23   2.503e-23   -22.602   -22.602     0.000     (0)  
   HS-             7.839e-24   7.828e-24   -23.106   -23.106    -0.001     (0)  
   S5-2            4.865e-26   4.839e-26   -25.313   -25.315    -0.002     (0)  
   S4-2            3.251e-26   3.234e-26   -25.488   -25.490    -0.002     (0)  
   S6-2            1.074e-27   1.068e-27   -26.969   -26.971    -0.002     (0)  
   S-2             5.979e-29   5.947e-29   -28.223   -28.226    -0.002     (0)  
   S3-2            1.453e-29   1.445e-29   -28.838   -28.840    -0.002     (0)  
   S2-2            1.157e-30   1.151e-30   -29.937   -29.939    -0.002     (0)  
   Fe(HS)2         0.000e+00   0.000e+00   -49.277   -49.277     0.000     (0)  
   Fe(HS)3-        0.000e+00   0.000e+00   -70.346   -70.347    -0.001     (0)  
S(6)          3.000e-12
   SO4-2           2.997e-12   2.981e-12   -11.523   -11.526    -0.002     (0)  
   HSO4-           2.792e-15   2.788e-15   -14.554   -14.555    -0.001     (0)  
   FeSO4           1.533e-21   1.533e-21   -20.814   -20.814     0.000     (0)  
   FeSO4+          1.504e-33   1.502e-33   -32.823   -32.823    -0.001     (0)  
   Fe(SO4)2-       0.000e+00   0.000e+00   -42.747   -42.747    -0.001     (0)  

------------------------------Saturation indices-------------------------------

  Phase               SI** log IAP   log K(373 K,   1 atm)

  Fe2(SO4)3       -81.03    -86.16   -5.13  Fe2(SO4)3
  Fe3(OH)8        -35.70    -15.47   20.22  Fe3(OH)8
  Ferrihydrite    -12.64     -7.75    4.89  Fe(OH)3
  FeS(ppt)        -25.19    -29.11   -3.92  FeS
  Goethite         -6.11     -7.75   -1.63  FeOOH
  Greigite        -95.93   -108.85  -12.91  Fe3S4
  Hematite         -6.94    -15.49   -8.55  Fe2O3
  Jarosite-H      -50.13    -70.35  -20.22  (H3O)Fe3(SO4)2(OH)6
  Lepidocrocite    -9.12     -7.75    1.37  FeOOH
  Mackinawite     -26.12    -22.58    3.54  FeS
  Maghemite       -21.88    -15.49    6.39  Fe2O3
  Magnetite       -11.78    -15.47   -3.70  Fe3O4
  Melanterite     -21.49    -23.54   -2.05  FeSO4:7H2O
  O2(g)           -48.22     15.18   63.40  O2
  pe_fix            2.22      2.22    0.00  e-
  pH_fix           -6.02     -6.02    0.00  H+
  Pyrite          -34.97    -50.64  -15.66  FeS2
  Pyrrhotite      -25.29     -5.99   19.31  FeS
  Sulfur          -18.49    -15.01    3.48  S

**For a gas, SI = log10(fugacity). Fugacity = pressure * phi / 1 atm.
  For ideal gases, phi = 1.

Reaction step 2.

Using solution 1.	PURE WATER
Using pure phase assemblage 1.	
Using reaction 1.	

Reaction 1.	

	  1.000e-12 moles of the following reaction have been added:

	                 Relative
	Reactant            moles

	Fe1S3                1.00000

	                 Relative
	Element             moles
	Fe                   1.00000
	S                    3.00000

-------------------------------Phase assemblage--------------------------------

                                                      Moles in assemblage
Phase               SI  log IAP  log K(T, P)   Initial       Final       Delta

Greigite          0.93     0.00     -0.93    0.000e+00           0   0.000e+00
Mackinawite     -24.32   -20.78      3.54    0.000e+00           0   0.000e+00
Pyrite            9.33     0.00     -9.33    0.000e+00           0   0.000e+00
Pyrrhotite       -6.20    16.15     22.34    0.000e+00           0   0.000e+00

-----------------------------Solution composition------------------------------

	Elements           Molality       Moles

	Fe                2.000e-12   2.000e-12
	S                 6.000e-12   6.000e-12

----------------------------Description of solution----------------------------

                                       pH  =   6.016      Charge balance
                                       pe  =  -2.371      Adjusted to redox equilibrium
                        Activity of water  =   1.000
                 Ionic strength (mol/kgw)  =   9.652e-07
                       Mass of water (kg)  =   1.000e+00
                 Total alkalinity (eq/kg)  =  -8.000e-12
                         Temperature (°C)  = 100.00
                  Electrical balance (eq)  =  -4.381e-21
 Percent error, 100*(Cat-|An|)/(Cat+|An|)  =  -0.00
                               Iterations  =   5
                                  Total H  = 1.110124e+02
                                  Total O  = 5.550622e+01

----------------------------Distribution of species----------------------------

                                               Log       Log       Log    mole V
   Species          Molality    Activity  Molality  Activity     Gamma    cm³/mol

   H+              9.652e-07   9.639e-07    -6.015    -6.016    -0.001      0.00
   OH-             9.652e-07   9.639e-07    -6.015    -6.016    -0.001     (0)  
   H2O             5.551e+01   1.000e+00     1.744    -0.000     0.000     18.80
Fe(2)         2.000e-12
   Fe+2            1.944e-12   1.934e-12   -11.711   -11.714    -0.002     (0)  
   FeOH+           5.590e-14   5.583e-14   -13.253   -13.253    -0.001     (0)  
   Fe(OH)2         9.049e-17   9.049e-17   -16.043   -16.043     0.000     (0)  
   Fe(OH)3-        6.292e-21   6.283e-21   -20.201   -20.202    -0.001     (0)  
   FeSO4           6.132e-21   6.132e-21   -20.212   -20.212     0.000     (0)  
   Fe(HS)2         0.000e+00   0.000e+00   -45.965   -45.965     0.000     (0)  
   Fe(HS)3-        0.000e+00   0.000e+00   -65.528   -65.528    -0.001     (0)  
Fe(3)         5.823e-20
   Fe(OH)2+        5.238e-20   5.231e-20   -19.281   -19.281    -0.001     (0)  
   FeOH+2          5.211e-21   5.183e-21   -20.283   -20.285    -0.002     (0)  
   Fe(OH)3         6.376e-22   6.376e-22   -21.195   -21.195     0.000     (0)  
   Fe(OH)4-        6.624e-24   6.615e-24   -23.179   -23.179    -0.001     (0)  
   Fe+3            2.301e-26   2.273e-26   -25.638   -25.643    -0.005     (0)  
   FeSO4+          4.252e-33   4.246e-33   -32.371   -32.372    -0.001     (0)  
   Fe2(OH)2+4      0.000e+00   0.000e+00   -40.207   -40.216    -0.009     (0)  
   Fe(SO4)2-       0.000e+00   0.000e+00   -41.994   -41.995    -0.001     (0)  
   Fe3(OH)4+5      0.000e+00   0.000e+00   -57.045   -57.060    -0.015     (0)  
H(0)          3.999e-11
   H2              1.999e-11   1.999e-11   -10.699   -10.699     0.000     (0)  
O(0)          0.000e+00
   O2              0.000e+00   0.000e+00   -51.642   -51.642     0.000     (0)  
S(-2)         1.065e-21
   H2S             8.020e-22   8.020e-22   -21.096   -21.096     0.000     (0)  
   HS-             2.512e-22   2.509e-22   -21.600   -21.601    -0.001     (0)  
   S5-2            1.559e-24   1.551e-24   -23.807   -23.809    -0.002     (0)  
   S4-2            1.042e-24   1.036e-24   -23.982   -23.985    -0.002     (0)  
   S6-2            3.442e-26   3.423e-26   -25.463   -25.466    -0.002     (0)  
   S-2             1.916e-27   1.906e-27   -26.718   -26.720    -0.002     (0)  
   S3-2            4.655e-28   4.630e-28   -27.332   -27.334    -0.002     (0)  
   S2-2            3.709e-29   3.689e-29   -28.431   -28.433    -0.002     (0)  
   Fe(HS)2         0.000e+00   0.000e+00   -45.965   -45.965     0.000     (0)  
   Fe(HS)3-        0.000e+00   0.000e+00   -65.528   -65.528    -0.001     (0)  
S(6)          6.000e-12
   SO4-2           5.994e-12   5.962e-12   -11.222   -11.225    -0.002     (0)  
   HSO4-           5.583e-15   5.576e-15   -14.253   -14.254    -0.001     (0)  
   FeSO4           6.132e-21   6.132e-21   -20.212   -20.212     0.000     (0)  
   FeSO4+          4.252e-33   4.246e-33   -32.371   -32.372    -0.001     (0)  
   Fe(SO4)2-       0.000e+00   0.000e+00   -41.994   -41.995    -0.001     (0)  

------------------------------Saturation indices-------------------------------

  Phase               SI** log IAP   log K(373 K,   1 atm)

  Fe2(SO4)3       -79.83    -84.96   -5.13  Fe2(SO4)3
  Fe3(OH)8        -35.09    -14.87   20.22  Fe3(OH)8
  Ferrihydrite    -12.49     -7.60    4.89  Fe(OH)3
  FeS(ppt)        -23.38    -27.30   -3.92  FeS
  Goethite         -5.96     -7.60   -1.63  FeOOH
  Greigite        -89.31   -102.22  -12.91  Fe3S4
  Hematite         -6.64    -15.19   -8.55  Fe2O3
  Jarosite-H      -49.07    -69.30  -20.22  (H3O)Fe3(SO4)2(OH)6
  Lepidocrocite    -8.97     -7.60    1.37  FeOOH
  Mackinawite     -24.32    -20.78    3.54  FeS
  Maghemite       -21.58    -15.19    6.39  Fe2O3
  Magnetite       -11.18    -14.87   -3.70  Fe3O4
  Melanterite     -20.89    -22.94   -2.05  FeSO4:7H2O
  O2(g)           -48.82     14.58   63.40  O2
  pe_fix            2.37      2.37    0.00  e-
  pH_fix           -6.02     -6.02    0.00  H+
  Pyrite          -31.96    -47.62  -15.66  FeS2
  Pyrrhotite      -23.49     -4.18   19.31  FeS
  Sulfur          -17.29    -13.81    3.48  S

**For a gas, SI = log10(fugacity). Fugacity = pressure * phi / 1 atm.
  For ideal gases, phi = 1.

Reaction step 3.

Using solution 1.	PURE WATER
Using pure phase assemblage 1.	
Using reaction 1.	

Reaction 1.	

	  1.000e-12 moles of the following reaction have been added:

	                 Relative
	Reactant            moles

	Fe1S3                1.00000

	                 Relative
	Element             moles
	Fe                   1.00000
	S                    3.00000

-------------------------------Phase assemblage--------------------------------

                                                      Moles in assemblage
Phase               SI  log IAP  log K(T, P)   Initial       Final       Delta

Greigite          0.93     0.00     -0.93    0.000e+00           0   0.000e+00
Mackinawite     -23.26   -19.72      3.54    0.000e+00           0   0.000e+00
Pyrite            9.33     0.00     -9.33    0.000e+00           0   0.000e+00
Pyrrhotite       -5.85    16.50     22.34    0.000e+00           0   0.000e+00

-----------------------------Solution composition------------------------------

	Elements           Molality       Moles

	Fe                3.000e-12   3.000e-12
	S                 9.000e-12   9.000e-12

----------------------------Description of solution----------------------------

                                       pH  =   6.016      Charge balance
                                       pe  =  -2.459      Adjusted to redox equilibrium
                        Activity of water  =   1.000
                 Ionic strength (mol/kgw)  =   9.652e-07
                       Mass of water (kg)  =   1.000e+00
                 Total alkalinity (eq/kg)  =  -1.200e-11
                         Temperature (°C)  = 100.00
                  Electrical balance (eq)  =  -6.458e-21
 Percent error, 100*(Cat-|An|)/(Cat+|An|)  =  -0.00
                               Iterations  =   4
                                  Total H  = 1.110124e+02
                                  Total O  = 5.550622e+01

----------------------------Distribution of species----------------------------

                                               Log       Log       Log    mole V
   Species          Molality    Activity  Molality  Activity     Gamma    cm³/mol

   H+              9.652e-07   9.639e-07    -6.015    -6.016    -0.001      0.00
   OH-             9.652e-07   9.639e-07    -6.015    -6.016    -0.001     (0)  
   H2O             5.551e+01   1.000e+00     1.744    -0.000     0.000     18.80
Fe(2)         3.000e-12
   Fe+2            2.916e-12   2.900e-12   -11.535   -11.538    -0.002     (0)  
   FeOH+           8.385e-14   8.374e-14   -13.076   -13.077    -0.001     (0)  
   Fe(OH)2         1.357e-16   1.357e-16   -15.867   -15.867     0.000     (0)  
   FeSO4           1.380e-20   1.380e-20   -19.860   -19.860     0.000     (0)  
   Fe(OH)3-        9.438e-21   9.425e-21   -20.025   -20.026    -0.001     (0)  
   Fe(HS)2         0.000e+00   0.000e+00   -44.028   -44.028     0.000     (0)  
   Fe(HS)3-        0.000e+00   0.000e+00   -62.711   -62.711    -0.001     (0)  
Fe(3)         7.132e-20
   Fe(OH)2+        6.415e-20   6.407e-20   -19.193   -19.193    -0.001     (0)  
   FeOH+2          6.383e-21   6.348e-21   -20.195   -20.197    -0.002     (0)  
   Fe(OH)3         7.809e-22   7.809e-22   -21.107   -21.107     0.000     (0)  
   Fe(OH)4-        8.113e-24   8.102e-24   -23.091   -23.091    -0.001     (0)  
   Fe+3            2.818e-26   2.784e-26   -25.550   -25.555    -0.005     (0)  
   FeSO4+          7.812e-33   7.802e-33   -32.107   -32.108    -0.001     (0)  
   Fe2(OH)2+4      0.000e+00   0.000e+00   -40.030   -40.040    -0.009     (0)  
   Fe(SO4)2-       0.000e+00   0.000e+00   -41.554   -41.555    -0.001     (0)  
   Fe3(OH)4+5      0.000e+00   0.000e+00   -56.781   -56.795    -0.015     (0)  
H(0)          5.997e-11
   H2              2.999e-11   2.999e-11   -10.523   -10.523     0.000     (0)  
O(0)          0.000e+00
   O2              0.000e+00   0.000e+00   -51.994   -51.994     0.000     (0)  
S(-2)         8.086e-21
   H2S             6.087e-21   6.087e-21   -20.216   -20.216     0.000     (0)  
   HS-             1.907e-21   1.904e-21   -20.720   -20.720    -0.001     (0)  
   S5-2            1.183e-23   1.177e-23   -22.927   -22.929    -0.002     (0)  
   S4-2            7.908e-24   7.865e-24   -23.102   -23.104    -0.002     (0)  
   S6-2            2.612e-25   2.598e-25   -24.583   -24.585    -0.002     (0)  
   S-2             1.454e-26   1.446e-26   -25.837   -25.840    -0.002     (0)  
   S3-2            3.533e-27   3.514e-27   -26.452   -26.454    -0.002     (0)  
   S2-2            2.815e-28   2.800e-28   -27.550   -27.553    -0.002     (0)  
   Fe(HS)2         0.000e+00   0.000e+00   -44.028   -44.028     0.000     (0)  
   Fe(HS)3-        0.000e+00   0.000e+00   -62.711   -62.711    -0.001     (0)  
S(6)          9.000e-12
   SO4-2           8.992e-12   8.943e-12   -11.046   -11.049    -0.002     (0)  
   HSO4-           8.375e-15   8.363e-15   -14.077   -14.078    -0.001     (0)  
   FeSO4           1.380e-20   1.380e-20   -19.860   -19.860     0.000     (0)  
   FeSO4+          7.812e-33   7.802e-33   -32.107   -32.108    -0.001     (0)  
   Fe(SO4)2-       0.000e+00   0.000e+00   -41.554   -41.555    -0.001     (0)  

------------------------------Saturation indices-------------------------------

  Phase               SI** log IAP   log K(373 K,   1 atm)

  Fe2(SO4)3       -79.13    -84.26   -5.13  Fe2(SO4)3
  Fe3(OH)8        -34.74    -14.52   20.22  Fe3(OH)8
  Ferrihydrite    -12.40     -7.51    4.89  Fe(OH)3
  FeS(ppt)        -22.33    -26.24   -3.92  FeS
  Goethite         -5.87     -7.51   -1.63  FeOOH
  Greigite        -85.43    -98.35  -12.91  Fe3S4
  Hematite         -6.46    -15.01   -8.55  Fe2O3
  Jarosite-H      -48.46    -68.68  -20.22  (H3O)Fe3(SO4)2(OH)6
  Lepidocrocite    -8.88     -7.51    1.37  FeOOH
  Mackinawite     -23.26    -19.72    3.54  FeS
  Maghemite       -21.40    -15.01    6.39  Fe2O3
  Magnetite       -10.82    -14.52   -3.70  Fe3O4
  Melanterite     -20.54    -22.59   -2.05  FeSO4:7H2O
  O2(g)           -49.18     14.23   63.40  O2
  pe_fix            2.46      2.46    0.00  e-
  pH_fix           -6.02     -6.02    0.00  H+
  Pyrite          -30.20    -45.86  -15.66  FeS2
  Pyrrhotite      -22.43     -3.12   19.31  FeS
  Sulfur          -16.58    -13.10    3.48  S

**For a gas, SI = log10(fugacity). Fugacity = pressure * phi / 1 atm.
  For ideal gases, phi = 1.

Reaction step 4.

Using solution 1.	PURE WATER
Using pure phase assemblage 1.	
Using reaction 1.	

Reaction 1.	

	  1.000e-12 moles of the following reaction have been added:

	                 Relative
	Reactant            moles

	Fe1S3                1.00000

	                 Relative
	Element             moles
	Fe                   1.00000
	S                    3.00000

-------------------------------Phase assemblage--------------------------------

                                                      Moles in assemblage
Phase               SI  log IAP  log K(T, P)   Initial       Final       Delta

Greigite          0.93     0.00     -0.93    0.000e+00           0   0.000e+00
Mackinawite     -22.51   -18.97      3.54    0.000e+00           0   0.000e+00
Pyrite            9.33     0.00     -9.33    0.000e+00           0   0.000e+00
Pyrrhotite       -5.60    16.75     22.34    0.000e+00           0   0.000e+00

-----------------------------Solution composition------------------------------

	Elements           Molality       Moles

	Fe                4.000e-12   4.000e-12
	S                 1.200e-11   1.200e-11

----------------------------Description of solution----------------------------

                                       pH  =   6.016      Charge balance
                                       pe  =  -2.522      Adjusted to redox equilibrium
                        Activity of water  =   1.000
                 Ionic strength (mol/kgw)  =   9.652e-07
                       Mass of water (kg)  =   1.000e+00
                 Total alkalinity (eq/kg)  =  -1.600e-11
                         Temperature (°C)  = 100.00
                  Electrical balance (eq)  =  -4.658e-21
 Percent error, 100*(Cat-|An|)/(Cat+|An|)  =  -0.00
                               Iterations  =   4
                                  Total H  = 1.110124e+02
                                  Total O  = 5.550622e+01

----------------------------Distribution of species----------------------------

                                               Log       Log       Log    mole V
   Species          Molality    Activity  Molality  Activity     Gamma    cm³/mol

   H+              9.652e-07   9.639e-07    -6.015    -6.016    -0.001      0.00
   OH-             9.652e-07   9.639e-07    -6.015    -6.016    -0.001     (0)  
   H2O             5.551e+01   1.000e+00     1.744    -0.000     0.000     18.80
Fe(2)         4.000e-12
   Fe+2            3.888e-12   3.867e-12   -11.410   -11.413    -0.002     (0)  
   FeOH+           1.118e-13   1.117e-13   -12.952   -12.952    -0.001     (0)  
   Fe(OH)2         1.810e-16   1.810e-16   -15.742   -15.742     0.000     (0)  
   FeSO4           2.453e-20   2.453e-20   -19.610   -19.610     0.000     (0)  
   Fe(OH)3-        1.258e-20   1.257e-20   -19.900   -19.901    -0.001     (0)  
   Fe(HS)2         0.000e+00   0.000e+00   -42.653   -42.653     0.000     (0)  
   Fe(HS)3-        0.000e+00   0.000e+00   -60.711   -60.712    -0.001     (0)  
Fe(3)         8.235e-20
   Fe(OH)2+        7.407e-20   7.397e-20   -19.130   -19.131    -0.001     (0)  
   FeOH+2          7.370e-21   7.330e-21   -20.133   -20.135    -0.002     (0)  
   Fe(OH)3         9.017e-22   9.017e-22   -21.045   -21.045     0.000     (0)  
   Fe(OH)4-        9.367e-24   9.355e-24   -23.028   -23.029    -0.001     (0)  
   Fe+3            3.254e-26   3.214e-26   -25.488   -25.493    -0.005     (0)  
   FeSO4+          1.203e-32   1.201e-32   -31.920   -31.920    -0.001     (0)  
   Fe2(OH)2+4      1.243e-40   1.216e-40   -39.906   -39.915    -0.009     (0)  
   Fe(SO4)2-       0.000e+00   0.000e+00   -41.242   -41.242    -0.001     (0)  
   Fe3(OH)4+5      0.000e+00   0.000e+00   -56.593   -56.608    -0.015     (0)  
H(0)          7.997e-11
   H2              3.999e-11   3.999e-11   -10.398   -10.398     0.000     (0)  
O(0)          0.000e+00
   O2              0.000e+00   0.000e+00   -52.244   -52.244     0.000     (0)  
S(-2)         3.409e-20
   H2S             2.566e-20   2.566e-20   -19.591   -19.591     0.000     (0)  
   HS-             8.039e-21   8.028e-21   -20.095   -20.095    -0.001     (0)  
   S5-2            4.989e-23   4.962e-23   -22.302   -22.304    -0.002     (0)  
   S4-2            3.334e-23   3.316e-23   -22.477   -22.479    -0.002     (0)  
   S6-2            1.101e-24   1.095e-24   -23.958   -23.960    -0.002     (0)  
   S-2             6.131e-26   6.098e-26   -25.212   -25.215    -0.002     (0)  
   S3-2            1.490e-26   1.482e-26   -25.827   -25.829    -0.002     (0)  
   S2-2            1.187e-27   1.180e-27   -26.926   -26.928    -0.002     (0)  
   Fe(HS)2         0.000e+00   0.000e+00   -42.653   -42.653     0.000     (0)  
   Fe(HS)3-        0.000e+00   0.000e+00   -60.711   -60.712    -0.001     (0)  
S(6)          1.200e-11
   SO4-2           1.199e-11   1.192e-11   -10.921   -10.924    -0.002     (0)  
   HSO4-           1.117e-14   1.115e-14   -13.952   -13.953    -0.001     (0)  
   FeSO4           2.453e-20   2.453e-20   -19.610   -19.610     0.000     (0)  
   FeSO4+          1.203e-32   1.201e-32   -31.920   -31.920    -0.001     (0)  
   Fe(SO4)2-       0.000e+00   0.000e+00   -41.242   -41.242    -0.001     (0)  

------------------------------Saturation indices-------------------------------

  Phase               SI** log IAP   log K(373 K,   1 atm)

  Fe2(SO4)3       -78.63    -83.76   -5.13  Fe2(SO4)3
  Fe3(OH)8        -34.49    -14.27   20.22  Fe3(OH)8
  Ferrihydrite    -12.34     -7.44    4.89  Fe(OH)3
  FeS(ppt)        -21.58    -25.49   -3.92  FeS
  Goethite         -5.81     -7.44   -1.63  FeOOH
  Greigite        -82.68    -95.60  -12.91  Fe3S4
  Hematite         -6.34    -14.89   -8.55  Fe2O3
  Jarosite-H      -48.02    -68.25  -20.22  (H3O)Fe3(SO4)2(OH)6
  Lepidocrocite    -8.82     -7.44    1.37  FeOOH
  Mackinawite     -22.51    -18.97    3.54  FeS
  Maghemite       -21.28    -14.89    6.39  Fe2O3
  Magnetite       -10.57    -14.27   -3.70  Fe3O4
  Melanterite     -20.29    -22.34   -2.05  FeSO4:7H2O
  O2(g)           -49.43     13.98   63.40  O2
  pe_fix            2.52      2.52    0.00  e-
  pH_fix           -6.02     -6.02    0.00  H+
  Pyrite          -28.95    -44.61  -15.66  FeS2
  Pyrrhotite      -21.68     -2.37   19.31  FeS
  Sulfur          -16.08    -12.60    3.48  S

**For a gas, SI = log10(fugacity). Fugacity = pressure * phi / 1 atm.
  For ideal gases, phi = 1.

Reaction step 5.

Using solution 1.	PURE WATER
Using pure phase assemblage 1.	
Using reaction 1.	

Reaction 1.	

	  1.000e-12 moles of the following reaction have been added:

	                 Relative
	Reactant            moles

	Fe1S3                1.00000

	                 Relative
	Element             moles
	Fe                   1.00000
	S                    3.00000

-------------------------------Phase assemblage--------------------------------

                                                      Moles in assemblage
Phase               SI  log IAP  log K(T, P)   Initial       Final       Delta

Greigite          0.93     0.00     -0.93    0.000e+00           0   0.000e+00
Mackinawite     -21.93   -18.39      3.54    0.000e+00           0   0.000e+00
Pyrite            9.33     0.00     -9.33    0.000e+00           0   0.000e+00
Pyrrhotite       -5.40    16.94     22.34    0.000e+00           0   0.000e+00

-----------------------------Solution composition------------------------------

	Elements           Molality       Moles

	Fe                5.000e-12   5.000e-12
	S                 1.500e-11   1.500e-11

----------------------------Description of solution----------------------------

                                       pH  =   6.016      Charge balance
                                       pe  =  -2.570      Adjusted to redox equilibrium
                        Activity of water  =   1.000
                 Ionic strength (mol/kgw)  =   9.652e-07
                       Mass of water (kg)  =   1.000e+00
                 Total alkalinity (eq/kg)  =  -2.000e-11
                         Temperature (°C)  = 100.00
                  Electrical balance (eq)  =  -1.289e-18
 Percent error, 100*(Cat-|An|)/(Cat+|An|)  =  -0.00
                               Iterations  =   3
                                  Total H  = 1.110124e+02
                                  Total O  = 5.550622e+01

----------------------------Distribution of species----------------------------

                                               Log       Log       Log    mole V
   Species          Molality    Activity  Molality  Activity     Gamma    cm³/mol

   H+              9.652e-07   9.639e-07    -6.015    -6.016    -0.001      0.00
   OH-             9.652e-07   9.639e-07    -6.015    -6.016    -0.001     (0)  
   H2O             5.551e+01   1.000e+00     1.744    -0.000     0.000     18.80
Fe(2)         5.000e-12
   Fe+2            4.860e-12   4.834e-12   -11.313   -11.316    -0.002     (0)  
   FeOH+           1.398e-13   1.396e-13   -12.855   -12.855    -0.001     (0)  
   Fe(OH)2         2.262e-16   2.262e-16   -15.645   -15.645     0.000     (0)  
   FeSO4           3.832e-20   3.832e-20   -19.417   -19.417     0.000     (0)  
   Fe(OH)3-        1.573e-20   1.571e-20   -19.803   -19.804    -0.001     (0)  
   Fe(HS)2         0.000e+00   0.000e+00   -41.587   -41.587     0.000     (0)  
   Fe(HS)3-        0.000e+00   0.000e+00   -59.160   -59.161    -0.001     (0)  
Fe(3)         9.207e-20
   Fe(OH)2+        8.281e-20   8.270e-20   -19.082   -19.082    -0.001     (0)  
   FeOH+2          8.239e-21   8.195e-21   -20.084   -20.086    -0.002     (0)  
   Fe(OH)3         1.008e-21   1.008e-21   -20.997   -20.997     0.000     (0)  
   Fe(OH)4-        1.047e-23   1.046e-23   -22.980   -22.981    -0.001     (0)  
   Fe+3            3.638e-26   3.594e-26   -25.439   -25.444    -0.005     (0)  
   FeSO4+          1.681e-32   1.678e-32   -31.774   -31.775    -0.001     (0)  
   Fe2(OH)2+4      1.554e-40   1.520e-40   -39.809   -39.818    -0.009     (0)  
   Fe(SO4)2-       0.000e+00   0.000e+00   -41.000   -41.000    -0.001     (0)  
   Fe3(OH)4+5      0.000e+00   0.000e+00   -56.448   -56.463    -0.015     (0)  
H(0)          9.997e-11
   H2              4.999e-11   4.999e-11   -10.301   -10.301     0.000     (0)  
O(0)          0.000e+00
   O2              0.000e+00   0.000e+00   -52.438   -52.438     0.000     (0)  
S(-2)         1.041e-19
   H2S             7.834e-20   7.834e-20   -19.106   -19.106     0.000     (0)  
   HS-             2.454e-20   2.451e-20   -19.610   -19.611    -0.001     (0)  
   S5-2            1.523e-22   1.515e-22   -21.817   -21.820    -0.002     (0)  
   S4-2            1.018e-22   1.012e-22   -21.992   -21.995    -0.002     (0)  
   S6-2            3.362e-24   3.344e-24   -23.473   -23.476    -0.002     (0)  
   S-2             1.872e-25   1.861e-25   -24.728   -24.730    -0.002     (0)  
   S3-2            4.547e-26   4.523e-26   -25.342   -25.345    -0.002     (0)  
   S2-2            3.623e-27   3.604e-27   -26.441   -26.443    -0.002     (0)  
   Fe(HS)2         0.000e+00   0.000e+00   -41.587   -41.587     0.000     (0)  
   Fe(HS)3-        0.000e+00   0.000e+00   -59.160   -59.161    -0.001     (0)  
S(6)          1.500e-11
   SO4-2           1.499e-11   1.490e-11   -10.824   -10.827    -0.002     (0)  
   HSO4-           1.396e-14   1.394e-14   -13.855   -13.856    -0.001     (0)  
   FeSO4           3.832e-20   3.832e-20   -19.417   -19.417     0.000     (0)  
   FeSO4+          1.681e-32   1.678e-32   -31.774   -31.775    -0.001     (0)  
   Fe(SO4)2-       0.000e+00   0.000e+00   -41.000   -41.000    -0.001     (0)  

------------------------------Saturation indices-------------------------------

  Phase               SI** log IAP   log K(373 K,   1 atm)

  Fe2(SO4)3       -78.24    -83.37   -5.13  Fe2(SO4)3
  Fe3(OH)8        -34.30    -14.08   20.22  Fe3(OH)8
  Ferrihydrite    -12.29     -7.40    4.89  Fe(OH)3
  FeS(ppt)        -21.00    -24.91   -3.92  FeS
  Goethite         -5.76     -7.40   -1.63  FeOOH
  Greigite        -80.55    -93.47  -12.91  Fe3S4
  Hematite         -6.24    -14.79   -8.55  Fe2O3
  Jarosite-H      -47.68    -67.91  -20.22  (H3O)Fe3(SO4)2(OH)6
  Lepidocrocite    -8.77     -7.40    1.37  FeOOH
  Mackinawite     -21.93    -18.39    3.54  FeS
  Maghemite       -21.18    -14.79    6.39  Fe2O3
  Magnetite       -10.38    -14.08   -3.70  Fe3O4
  Melanterite     -20.09    -22.14   -2.05  FeSO4:7H2O
  O2(g)           -49.62     13.78   63.40  O2
  pe_fix            2.57      2.57    0.00  e-
  pH_fix           -6.02     -6.02    0.00  H+
  Pyrite          -27.98    -43.65  -15.66  FeS2
  Pyrrhotite      -21.10     -1.79   19.31  FeS
  Sulfur          -15.70    -12.21    3.48  S

**For a gas, SI = log10(fugacity). Fugacity = pressure * phi / 1 atm.
  For ideal gases, phi = 1.

Reaction step 6.

Using solution 1.	PURE WATER
Using pure phase assemblage 1.	
Using reaction 1.	

Reaction 1.	

	  1.000e-12 moles of the following reaction have been added:

	                 Relative
	Reactant            moles

	Fe1S3                1.00000

	                 Relative
	Element             moles
	Fe                   1.00000
	S                    3.00000

-------------------------------Phase assemblage--------------------------------

                                                      Moles in assemblage
Phase               SI  log IAP  log K(T, P)   Initial       Final       Delta

Greigite          0.93     0.00     -0.93    0.000e+00           0   0.000e+00
Mackinawite     -21.45   -17.91      3.54    0.000e+00           0   0.000e+00
Pyrite            9.33     0.00     -9.33    0.000e+00           0   0.000e+00
Pyrrhotite       -5.24    17.10     22.34    0.000e+00           0   0.000e+00

-----------------------------Solution composition------------------------------

	Elements           Molality       Moles

	Fe                6.000e-12   6.000e-12
	S                 1.800e-11   1.800e-11

----------------------------Description of solution----------------------------

                                       pH  =   6.016      Charge balance
                                       pe  =  -2.610      Adjusted to redox equilibrium
                        Activity of water  =   1.000
                 Ionic strength (mol/kgw)  =   9.652e-07
                       Mass of water (kg)  =   1.000e+00
                 Total alkalinity (eq/kg)  =  -2.400e-11
                         Temperature (°C)  = 100.00
                  Electrical balance (eq)  =  -1.583e-18
 Percent error, 100*(Cat-|An|)/(Cat+|An|)  =  -0.00
                               Iterations  =   3
                                  Total H  = 1.110124e+02
                                  Total O  = 5.550622e+01

----------------------------Distribution of species----------------------------

                                               Log       Log       Log    mole V
   Species          Molality    Activity  Molality  Activity     Gamma    cm³/mol

   H+              9.652e-07   9.639e-07    -6.015    -6.016    -0.001      0.00
   OH-             9.652e-07   9.639e-07    -6.015    -6.016    -0.001     (0)  
   H2O             5.551e+01   1.000e+00     1.744    -0.000     0.000     18.80
Fe(2)         6.000e-12
   Fe+2            5.832e-12   5.801e-12   -11.234   -11.237    -0.002     (0)  
   FeOH+           1.677e-13   1.675e-13   -12.775   -12.776    -0.001     (0)  
   Fe(OH)2         2.715e-16   2.715e-16   -15.566   -15.566     0.000     (0)  
   FeSO4           5.519e-20   5.519e-20   -19.258   -19.258     0.000     (0)  
   Fe(OH)3-        1.888e-20   1.885e-20   -19.724   -19.725    -0.001     (0)  
   Fe(HS)2         0.000e+00   0.000e+00   -40.716   -40.716     0.000     (0)  
   Fe(HS)3-        0.000e+00   0.000e+00   -57.893   -57.894    -0.001     (0)  
Fe(3)         1.009e-19
   Fe(OH)2+        9.071e-20   9.059e-20   -19.042   -19.043    -0.001     (0)  
   FeOH+2          9.026e-21   8.977e-21   -20.045   -20.047    -0.002     (0)  
   Fe(OH)3         1.104e-21   1.104e-21   -20.957   -20.957     0.000     (0)  
   Fe(OH)4-        1.147e-23   1.146e-23   -22.940   -22.941    -0.001     (0)  
   Fe+3            3.985e-26   3.937e-26   -25.400   -25.405    -0.005     (0)  
   FeSO4+          2.209e-32   2.206e-32   -31.656   -31.656    -0.001     (0)  
   Fe2(OH)2+4      1.864e-40   1.824e-40   -39.729   -39.739    -0.009     (0)  
   Fe(SO4)2-       0.000e+00   0.000e+00   -40.802   -40.802    -0.001     (0)  
   Fe3(OH)4+5      0.000e+00   0.000e+00   -56.329   -56.344    -0.015     (0)  
H(0)          1.200e-10
   H2              5.999e-11   5.999e-11   -10.222   -10.222     0.000     (0)  
O(0)          0.000e+00
   O2              0.000e+00   0.000e+00   -52.597   -52.597     0.000     (0)  
S(-2)         2.590e-19
   H2S             1.950e-19   1.950e-19   -18.710   -18.710     0.000     (0)  
   HS-             6.107e-20   6.099e-20   -19.214   -19.215    -0.001     (0)  
   S5-2            3.791e-22   3.770e-22   -21.421   -21.424    -0.002     (0)  
   S4-2            2.533e-22   2.519e-22   -21.596   -21.599    -0.002     (0)  
   S6-2            8.367e-24   8.322e-24   -23.077   -23.080    -0.002     (0)  
   S-2             4.658e-25   4.633e-25   -24.332   -24.334    -0.002     (0)  
   S3-2            1.132e-25   1.126e-25   -24.946   -24.949    -0.002     (0)  
   S2-2            9.017e-27   8.969e-27   -26.045   -26.047    -0.002     (0)  
   Fe(HS)2         0.000e+00   0.000e+00   -40.716   -40.716     0.000     (0)  
   Fe(HS)3-        0.000e+00   0.000e+00   -57.893   -57.894    -0.001     (0)  
S(6)          1.800e-11
   SO4-2           1.798e-11   1.789e-11   -10.745   -10.747    -0.002     (0)  
   HSO4-           1.675e-14   1.673e-14   -13.776   -13.777    -0.001     (0)  
   FeSO4           5.519e-20   5.519e-20   -19.258   -19.258     0.000     (0)  
   FeSO4+          2.209e-32   2.206e-32   -31.656   -31.656    -0.001     (0)  
   Fe(SO4)2-       0.000e+00   0.000e+00   -40.802   -40.802    -0.001     (0)  

------------------------------Saturation indices-------------------------------

  Phase               SI** log IAP   log K(373 K,   1 atm)

  Fe2(SO4)3       -77.92    -83.05   -5.13  Fe2(SO4)3
  Fe3(OH)8        -34.14    -13.92   20.22  Fe3(OH)8
  Ferrihydrite    -12.25     -7.36    4.89  Fe(OH)3
  FeS(ppt)        -20.52    -24.44   -3.92  FeS
  Goethite         -5.72     -7.36   -1.63  FeOOH
  Greigite        -78.81    -91.72  -12.91  Fe3S4
  Hematite         -6.16    -14.71   -8.55  Fe2O3
  Jarosite-H      -47.40    -67.63  -20.22  (H3O)Fe3(SO4)2(OH)6
  Lepidocrocite    -8.73     -7.36    1.37  FeOOH
  Mackinawite     -21.45    -17.91    3.54  FeS
  Maghemite       -21.10    -14.71    6.39  Fe2O3
  Magnetite       -10.22    -13.92   -3.70  Fe3O4
  Melanterite     -19.94    -21.98   -2.05  FeSO4:7H2O
  O2(g)           -49.78     13.63   63.40  O2
  pe_fix            2.61      2.61    0.00  e-
  pH_fix           -6.02     -6.02    0.00  H+
  Pyrite          -27.19    -42.85  -15.66  FeS2
  Pyrrhotite      -20.63     -1.32   19.31  FeS
  Sulfur          -15.38    -11.90    3.48  S

**For a gas, SI = log10(fugacity). Fugacity = pressure * phi / 1 atm.
  For ideal gases, phi = 1.

Reaction step 7.

Using solution 1.	PURE WATER
Using pure phase assemblage 1.	
Using reaction 1.	

Reaction 1.	

	  1.000e-12 moles of the following reaction have been added:

	                 Relative
	Reactant            moles

	Fe1S3                1.00000

	                 Relative
	Element             moles
	Fe                   1.00000
	S                    3.00000

-------------------------------Phase assemblage--------------------------------

                                                      Moles in assemblage
Phase               SI  log IAP  log K(T, P)   Initial       Final       Delta

Greigite          0.93     0.00     -0.93    0.000e+00           0   0.000e+00
Mackinawite     -21.05   -17.51      3.54    0.000e+00           0   0.000e+00
Pyrite            9.33     0.00     -9.33    0.000e+00           0   0.000e+00
Pyrrhotite       -5.11    17.23     22.34    0.000e+00           0   0.000e+00

-----------------------------Solution composition------------------------------

	Elements           Molality       Moles

	Fe                7.000e-12   7.000e-12
	S                 2.100e-11   2.100e-11

----------------------------Description of solution----------------------------

                                       pH  =   6.016      Charge balance
                                       pe  =  -2.643      Adjusted to redox equilibrium
                        Activity of water  =   1.000
                 Ionic strength (mol/kgw)  =   9.652e-07
                       Mass of water (kg)  =   1.000e+00
                 Total alkalinity (eq/kg)  =  -2.800e-11
                         Temperature (°C)  = 100.00
                  Electrical balance (eq)  =  -1.667e-18
 Percent error, 100*(Cat-|An|)/(Cat+|An|)  =  -0.00
                               Iterations  =   3
                                  Total H  = 1.110124e+02
                                  Total O  = 5.550622e+01

----------------------------Distribution of species----------------------------

                                               Log       Log       Log    mole V
   Species          Molality    Activity  Molality  Activity     Gamma    cm³/mol

   H+              9.652e-07   9.639e-07    -6.015    -6.016    -0.001      0.00
   OH-             9.652e-07   9.639e-07    -6.015    -6.016    -0.001     (0)  
   H2O             5.551e+01   1.000e+00     1.744    -0.000     0.000     18.80
Fe(2)         7.000e-12
   Fe+2            6.804e-12   6.767e-12   -11.167   -11.170    -0.002     (0)  
   FeOH+           1.957e-13   1.954e-13   -12.708   -12.709    -0.001     (0)  
   Fe(OH)2         3.167e-16   3.167e-16   -15.499   -15.499     0.000     (0)  
   FeSO4           7.512e-20   7.512e-20   -19.124   -19.124     0.000     (0)  
   Fe(OH)3-        2.202e-20   2.199e-20   -19.657   -19.658    -0.001     (0)  
   Fe(HS)2         1.048e-40   1.048e-40   -39.979   -39.979     0.000     (0)  
   Fe(HS)3-        0.000e+00   0.000e+00   -56.822   -56.822    -0.001     (0)  
Fe(3)         1.089e-19
   Fe(OH)2+        9.798e-20   9.785e-20   -19.009   -19.009    -0.001     (0)  
   FeOH+2          9.749e-21   9.696e-21   -20.011   -20.013    -0.002     (0)  
   Fe(OH)3         1.193e-21   1.193e-21   -20.923   -20.923     0.000     (0)  
   Fe(OH)4-        1.239e-23   1.237e-23   -22.907   -22.907    -0.001     (0)  
   Fe+3            4.304e-26   4.252e-26   -25.366   -25.371    -0.005     (0)  
   FeSO4+          2.784e-32   2.780e-32   -31.555   -31.556    -0.001     (0)  
   Fe2(OH)2+4      2.175e-40   2.128e-40   -39.663   -39.672    -0.009     (0)  
   Fe(SO4)2-       0.000e+00   0.000e+00   -40.634   -40.635    -0.001     (0)  
   Fe3(OH)4+5      0.000e+00   0.000e+00   -56.229   -56.244    -0.015     (0)  
H(0)          1.400e-10
   H2              6.999e-11   6.999e-11   -10.155   -10.155     0.000     (0)  
O(0)          0.000e+00
   O2              0.000e+00   0.000e+00   -52.731   -52.731     0.000     (0)  
S(-2)         5.599e-19
   H2S             4.215e-19   4.215e-19   -18.375   -18.375     0.000     (0)  
   HS-             1.320e-19   1.318e-19   -18.879   -18.880    -0.001     (0)  
   S5-2            8.194e-22   8.150e-22   -21.087   -21.089    -0.002     (0)  
   S4-2            5.475e-22   5.446e-22   -21.262   -21.264    -0.002     (0)  
   S6-2            1.809e-23   1.799e-23   -22.743   -22.745    -0.002     (0)  
   S-2             1.007e-24   1.001e-24   -23.997   -23.999    -0.002     (0)  
   S3-2            2.447e-25   2.433e-25   -24.611   -24.614    -0.002     (0)  
   S2-2            1.949e-26   1.939e-26   -25.710   -25.712    -0.002     (0)  
   Fe(HS)2         1.048e-40   1.048e-40   -39.979   -39.979     0.000     (0)  
   Fe(HS)3-        0.000e+00   0.000e+00   -56.822   -56.822    -0.001     (0)  
S(6)          2.100e-11
   SO4-2           2.098e-11   2.087e-11   -10.678   -10.681    -0.002     (0)  
   HSO4-           1.954e-14   1.951e-14   -13.709   -13.710    -0.001     (0)  
   FeSO4           7.512e-20   7.512e-20   -19.124   -19.124     0.000     (0)  
   FeSO4+          2.784e-32   2.780e-32   -31.555   -31.556    -0.001     (0)  
   Fe(SO4)2-       0.000e+00   0.000e+00   -40.634   -40.635    -0.001     (0)  

------------------------------Saturation indices-------------------------------

  Phase               SI** log IAP   log K(373 K,   1 atm)

  Fe2(SO4)3       -77.65    -82.78   -5.13  Fe2(SO4)3
  Fe3(OH)8        -34.01    -13.78   20.22  Fe3(OH)8
  Ferrihydrite    -12.21     -7.32    4.89  Fe(OH)3
  FeS(ppt)        -20.12    -24.03   -3.92  FeS
  Goethite         -5.69     -7.32   -1.63  FeOOH
  Greigite        -77.34    -90.25  -12.91  Fe3S4
  Hematite         -6.09    -14.65   -8.55  Fe2O3
  Jarosite-H      -47.17    -67.40  -20.22  (H3O)Fe3(SO4)2(OH)6
  Lepidocrocite    -8.69     -7.32    1.37  FeOOH
  Mackinawite     -21.05    -17.51    3.54  FeS
  Maghemite       -21.03    -14.65    6.39  Fe2O3
  Magnetite       -10.09    -13.78   -3.70  Fe3O4
  Melanterite     -19.80    -21.85   -2.05  FeSO4:7H2O
  O2(g)           -49.91     13.49   63.40  O2
  pe_fix            2.64      2.64    0.00  e-
  pH_fix           -6.02     -6.02    0.00  H+
  Pyrite          -26.52    -42.18  -15.66  FeS2
  Pyrrhotite      -20.22     -0.92   19.31  FeS
  Sulfur          -15.11    -11.63    3.48  S

**For a gas, SI = log10(fugacity). Fugacity = pressure * phi / 1 atm.
  For ideal gases, phi = 1.

Reaction step 8.

Using solution 1.	PURE WATER
Using pure phase assemblage 1.	
Using reaction 1.	

Reaction 1.	

	  1.000e-12 moles of the following reaction have been added:

	                 Relative
	Reactant            moles

	Fe1S3                1.00000

	                 Relative
	Element             moles
	Fe                   1.00000
	S                    3.00000

-------------------------------Phase assemblage--------------------------------

                                                      Moles in assemblage
Phase               SI  log IAP  log K(T, P)   Initial       Final       Delta

Greigite          0.93     0.00     -0.93    0.000e+00           0   0.000e+00
Mackinawite     -20.70   -17.16      3.54    0.000e+00           0   0.000e+00
Pyrite            9.33     0.00     -9.33    0.000e+00           0   0.000e+00
Pyrrhotite       -4.99    17.35     22.34    0.000e+00           0   0.000e+00

-----------------------------Solution composition------------------------------

	Elements           Molality       Moles

	Fe                8.000e-12   8.000e-12
	S                 2.400e-11   2.400e-11

----------------------------Description of solution----------------------------

                                       pH  =   6.016      Charge balance
                                       pe  =  -2.672      Adjusted to redox equilibrium
                        Activity of water  =   1.000
                 Ionic strength (mol/kgw)  =   9.652e-07
                       Mass of water (kg)  =   1.000e+00
                 Total alkalinity (eq/kg)  =  -3.200e-11
                         Temperature (°C)  = 100.00
                  Electrical balance (eq)  =  -1.696e-18
 Percent error, 100*(Cat-|An|)/(Cat+|An|)  =  -0.00
                               Iterations  =   3
                                  Total H  = 1.110124e+02
                                  Total O  = 5.550622e+01

----------------------------Distribution of species----------------------------

                                               Log       Log       Log    mole V
   Species          Molality    Activity  Molality  Activity     Gamma    cm³/mol

   H+              9.652e-07   9.639e-07    -6.015    -6.016    -0.001      0.00
   OH-             9.652e-07   9.638e-07    -6.015    -6.016    -0.001     (0)  
   H2O             5.551e+01   1.000e+00     1.744    -0.000     0.000     18.80
Fe(2)         8.000e-12
   Fe+2            7.776e-12   7.734e-12   -11.109   -11.112    -0.002     (0)  
   FeOH+           2.236e-13   2.233e-13   -12.651   -12.651    -0.001     (0)  
   Fe(OH)2         3.620e-16   3.620e-16   -15.441   -15.441     0.000     (0)  
   FeSO4           9.811e-20   9.811e-20   -19.008   -19.008     0.000     (0)  
   Fe(OH)3-        2.517e-20   2.513e-20   -19.599   -19.600    -0.001     (0)  
   Fe(HS)2         4.555e-40   4.555e-40   -39.341   -39.341     0.000     (0)  
   Fe(HS)3-        0.000e+00   0.000e+00   -55.894   -55.894    -0.001     (0)  
Fe(3)         1.165e-19
   Fe(OH)2+        1.047e-19   1.046e-19   -18.980   -18.980    -0.001     (0)  
   FeOH+2          1.042e-20   1.037e-20   -19.982   -19.984    -0.002     (0)  
   Fe(OH)3         1.275e-21   1.275e-21   -20.894   -20.894     0.000     (0)  
   Fe(OH)4-        1.325e-23   1.323e-23   -22.878   -22.879    -0.001     (0)  
   Fe+3            4.601e-26   4.546e-26   -25.337   -25.342    -0.005     (0)  
   FeSO4+          3.401e-32   3.397e-32   -31.468   -31.469    -0.001     (0)  
   Fe2(OH)2+4      2.486e-40   2.432e-40   -39.605   -39.614    -0.009     (0)  
   Fe(SO4)2-       0.000e+00   0.000e+00   -40.489   -40.490    -0.001     (0)  
   Fe3(OH)4+5      0.000e+00   0.000e+00   -56.142   -56.157    -0.015     (0)  
H(0)          1.600e-10
   H2              7.999e-11   7.999e-11   -10.097   -10.097     0.000     (0)  
O(0)          0.000e+00
   O2              0.000e+00   0.000e+00   -52.847   -52.847     0.000     (0)  
S(-2)         1.092e-18
   H2S             8.218e-19   8.218e-19   -18.085   -18.085     0.000     (0)  
   HS-             2.574e-19   2.571e-19   -18.589   -18.590    -0.001     (0)  
   S5-2            1.598e-21   1.589e-21   -20.797   -20.799    -0.002     (0)  
   S4-2            1.068e-21   1.062e-21   -20.972   -20.974    -0.002     (0)  
   S6-2            3.527e-23   3.508e-23   -22.453   -22.455    -0.002     (0)  
   S-2             1.963e-24   1.953e-24   -23.707   -23.709    -0.002     (0)  
   S3-2            4.770e-25   4.745e-25   -24.321   -24.324    -0.002     (0)  
   S2-2            3.801e-26   3.780e-26   -25.420   -25.422    -0.002     (0)  
   Fe(HS)2         4.555e-40   4.555e-40   -39.341   -39.341     0.000     (0)  
   Fe(HS)3-        0.000e+00   0.000e+00   -55.894   -55.894    -0.001     (0)  
S(6)          2.400e-11
   SO4-2           2.398e-11   2.385e-11   -10.620   -10.623    -0.002     (0)  
   HSO4-           2.233e-14   2.230e-14   -13.651   -13.652    -0.001     (0)  
   FeSO4           9.811e-20   9.811e-20   -19.008   -19.008     0.000     (0)  
   FeSO4+          3.401e-32   3.397e-32   -31.468   -31.469    -0.001     (0)  
   Fe(SO4)2-       0.000e+00   0.000e+00   -40.489   -40.490    -0.001     (0)  

------------------------------Saturation indices-------------------------------

  Phase               SI** log IAP   log K(373 K,   1 atm)

  Fe2(SO4)3       -77.42    -82.55   -5.13  Fe2(SO4)3
  Fe3(OH)8        -33.89    -13.67   20.22  Fe3(OH)8
  Ferrihydrite    -12.19     -7.29    4.89  Fe(OH)3
  FeS(ppt)        -19.77    -23.69   -3.92  FeS
  Goethite         -5.66     -7.29   -1.63  FeOOH
  Greigite        -76.06    -88.97  -12.91  Fe3S4
  Hematite         -6.04    -14.59   -8.55  Fe2O3
  Jarosite-H      -46.97    -67.19  -20.22  (H3O)Fe3(SO4)2(OH)6
  Lepidocrocite    -8.67     -7.29    1.37  FeOOH
  Mackinawite     -20.70    -17.16    3.54  FeS
  Maghemite       -20.97    -14.59    6.39  Fe2O3
  Magnetite        -9.97    -13.67   -3.70  Fe3O4
  Melanterite     -19.69    -21.73   -2.05  FeSO4:7H2O
  O2(g)           -50.03     13.38   63.40  O2
  pe_fix            2.67      2.67    0.00  e-
  pH_fix           -6.02     -6.02    0.00  H+
  Pyrite          -25.94    -41.60  -15.66  FeS2
  Pyrrhotite      -19.88     -0.57   19.31  FeS
  Sulfur          -14.88    -11.40    3.48  S

**For a gas, SI = log10(fugacity). Fugacity = pressure * phi / 1 atm.
  For ideal gases, phi = 1.

Reaction step 9.

Using solution 1.	PURE WATER
Using pure phase assemblage 1.	
Using reaction 1.	

Reaction 1.	

	  1.000e-12 moles of the following reaction have been added:

	                 Relative
	Reactant            moles

	Fe1S3                1.00000

	                 Relative
	Element             moles
	Fe                   1.00000
	S                    3.00000

-------------------------------Phase assemblage--------------------------------

                                                      Moles in assemblage
Phase               SI  log IAP  log K(T, P)   Initial       Final       Delta

Greigite          0.93     0.00     -0.93    0.000e+00           0   0.000e+00
Mackinawite     -20.40   -16.86      3.54    0.000e+00           0   0.000e+00
Pyrite            9.33     0.00     -9.33    0.000e+00           0   0.000e+00
Pyrrhotite       -4.89    17.45     22.34    0.000e+00           0   0.000e+00

-----------------------------Solution composition------------------------------

	Elements           Molality       Moles

	Fe                9.000e-12   9.000e-12
	S                 2.700e-11   2.700e-11

----------------------------Description of solution----------------------------

                                       pH  =   6.016      Charge balance
                                       pe  =  -2.698      Adjusted to redox equilibrium
                        Activity of water  =   1.000
                 Ionic strength (mol/kgw)  =   9.652e-07
                       Mass of water (kg)  =   1.000e+00
                 Total alkalinity (eq/kg)  =  -3.600e-11
                         Temperature (°C)  = 100.00
                  Electrical balance (eq)  =  -1.709e-18
 Percent error, 100*(Cat-|An|)/(Cat+|An|)  =  -0.00
                               Iterations  =   3
                                  Total H  = 1.110124e+02
                                  Total O  = 5.550622e+01

----------------------------Distribution of species----------------------------

                                               Log       Log       Log    mole V
   Species          Molality    Activity  Molality  Activity     Gamma    cm³/mol

   H+              9.652e-07   9.639e-07    -6.015    -6.016    -0.001      0.00
   OH-             9.652e-07   9.638e-07    -6.015    -6.016    -0.001     (0)  
   H2O             5.551e+01   1.000e+00     1.744    -0.000     0.000     18.80
Fe(2)         9.000e-12
   Fe+2            8.748e-12   8.701e-12   -11.058   -11.060    -0.002     (0)  
   FeOH+           2.516e-13   2.512e-13   -12.599   -12.600    -0.001     (0)  
   Fe(OH)2         4.072e-16   4.072e-16   -15.390   -15.390     0.000     (0)  
   FeSO4           1.242e-19   1.242e-19   -18.906   -18.906     0.000     (0)  
   Fe(OH)3-        2.831e-20   2.827e-20   -19.548   -19.549    -0.001     (0)  
   Fe(HS)2         1.663e-39   1.663e-39   -38.779   -38.779     0.000     (0)  
   Fe(HS)3-        0.000e+00   0.000e+00   -55.076   -55.076    -0.001     (0)  
Fe(3)         1.235e-19
   Fe(OH)2+        1.111e-19   1.109e-19   -18.954   -18.955    -0.001     (0)  
   FeOH+2          1.105e-20   1.099e-20   -19.956   -19.959    -0.002     (0)  
   Fe(OH)3         1.352e-21   1.352e-21   -20.869   -20.869     0.000     (0)  
   Fe(OH)4-        1.405e-23   1.403e-23   -22.852   -22.853    -0.001     (0)  
   Fe+3            4.881e-26   4.821e-26   -25.312   -25.317    -0.005     (0)  
   FeSO4+          4.059e-32   4.053e-32   -31.392   -31.392    -0.001     (0)  
   Fe2(OH)2+4      2.796e-40   2.736e-40   -39.553   -39.563    -0.009     (0)  
   Fe(SO4)2-       0.000e+00   0.000e+00   -40.361   -40.362    -0.001     (0)  
   Fe3(OH)4+5      0.000e+00   0.000e+00   -56.065   -56.080    -0.015     (0)  
H(0)          1.800e-10
   H2              8.998e-11   8.998e-11   -10.046   -10.046     0.000     (0)  
O(0)          0.000e+00
   O2              0.000e+00   0.000e+00   -52.949   -52.949     0.000     (0)  
S(-2)         1.967e-18
   H2S             1.481e-18   1.481e-18   -17.830   -17.830     0.000     (0)  
   HS-             4.638e-19   4.631e-19   -18.334   -18.334    -0.001     (0)  
   S5-2            2.878e-21   2.863e-21   -20.541   -20.543    -0.002     (0)  
   S4-2            1.923e-21   1.913e-21   -20.716   -20.718    -0.002     (0)  
   S6-2            6.354e-23   6.320e-23   -22.197   -22.199    -0.002     (0)  
   S-2             3.537e-24   3.518e-24   -23.451   -23.454    -0.002     (0)  
   S3-2            8.594e-25   8.548e-25   -24.066   -24.068    -0.002     (0)  
   S2-2            6.848e-26   6.810e-26   -25.164   -25.167    -0.002     (0)  
   Fe(HS)2         1.663e-39   1.663e-39   -38.779   -38.779     0.000     (0)  
   Fe(HS)3-        0.000e+00   0.000e+00   -55.076   -55.076    -0.001     (0)  
S(6)          2.700e-11
   SO4-2           2.697e-11   2.683e-11   -10.569   -10.571    -0.002     (0)  
   HSO4-           2.512e-14   2.509e-14   -13.600   -13.600    -0.001     (0)  
   FeSO4           1.242e-19   1.242e-19   -18.906   -18.906     0.000     (0)  
   FeSO4+          4.059e-32   4.053e-32   -31.392   -31.392    -0.001     (0)  
   Fe(SO4)2-       0.000e+00   0.000e+00   -40.361   -40.362    -0.001     (0)  

------------------------------Saturation indices-------------------------------

  Phase               SI** log IAP   log K(373 K,   1 atm)

  Fe2(SO4)3       -77.22    -82.35   -5.13  Fe2(SO4)3
  Fe3(OH)8        -33.79    -13.57   20.22  Fe3(OH)8
  Ferrihydrite    -12.16     -7.27    4.89  Fe(OH)3
  FeS(ppt)        -19.46    -23.38   -3.92  FeS
  Goethite         -5.64     -7.27   -1.63  FeOOH
  Greigite        -74.94    -87.85  -12.91  Fe3S4
  Hematite         -5.99    -14.54   -8.55  Fe2O3
  Jarosite-H      -46.79    -67.01  -20.22  (H3O)Fe3(SO4)2(OH)6
  Lepidocrocite    -8.64     -7.27    1.37  FeOOH
  Mackinawite     -20.40    -16.86    3.54  FeS
  Maghemite       -20.92    -14.54    6.39  Fe2O3
  Magnetite        -9.87    -13.57   -3.70  Fe3O4
  Melanterite     -19.58    -21.63   -2.05  FeSO4:7H2O
  O2(g)           -50.13     13.27   63.40  O2
  pe_fix            2.70      2.70    0.00  e-
  pH_fix           -6.02     -6.02    0.00  H+
  Pyrite          -25.43    -41.09  -15.66  FeS2
  Pyrrhotite      -19.57     -0.26   19.31  FeS
  Sulfur          -14.68    -11.19    3.48  S

**For a gas, SI = log10(fugacity). Fugacity = pressure * phi / 1 atm.
  For ideal gases, phi = 1.

Reaction step 10.

Using solution 1.	PURE WATER
Using pure phase assemblage 1.	
Using reaction 1.	

Reaction 1.	

	  1.000e-12 moles of the following reaction have been added:

	                 Relative
	Reactant            moles

	Fe1S3                1.00000

	                 Relative
	Element             moles
	Fe                   1.00000
	S                    3.00000

-------------------------------Phase assemblage--------------------------------

                                                      Moles in assemblage
Phase               SI  log IAP  log K(T, P)   Initial       Final       Delta

Greigite          0.93     0.00     -0.93    0.000e+00           0   0.000e+00
Mackinawite     -20.12   -16.58      3.54    0.000e+00           0   0.000e+00
Pyrite            9.33     0.00     -9.33    0.000e+00           0   0.000e+00
Pyrrhotite       -4.80    17.54     22.34    0.000e+00           0   0.000e+00

-----------------------------Solution composition------------------------------

	Elements           Molality       Moles

	Fe                1.000e-11   1.000e-11
	S                 3.000e-11   3.000e-11

----------------------------Description of solution----------------------------

                                       pH  =   6.016      Charge balance
                                       pe  =  -2.720      Adjusted to redox equilibrium
                        Activity of water  =   1.000
                 Ionic strength (mol/kgw)  =   9.653e-07
                       Mass of water (kg)  =   1.000e+00
                 Total alkalinity (eq/kg)  =  -4.000e-11
                         Temperature (°C)  = 100.00
                  Electrical balance (eq)  =  -1.715e-18
 Percent error, 100*(Cat-|An|)/(Cat+|An|)  =  -0.00
                               Iterations  =   3
                                  Total H  = 1.110124e+02
                                  Total O  = 5.550622e+01

----------------------------Distribution of species----------------------------

                                               Log       Log       Log    mole V
   Species          Molality    Activity  Molality  Activity     Gamma    cm³/mol

   H+              9.652e-07   9.639e-07    -6.015    -6.016    -0.001      0.00
   OH-             9.652e-07   9.638e-07    -6.015    -6.016    -0.001     (0)  
   H2O             5.551e+01   1.000e+00     1.744    -0.000     0.000     18.80
Fe(2)         1.000e-11
   Fe+2            9.720e-12   9.668e-12   -11.012   -11.015    -0.002     (0)  
   FeOH+           2.795e-13   2.791e-13   -12.554   -12.554    -0.001     (0)  
   Fe(OH)2         4.524e-16   4.524e-16   -15.344   -15.344     0.000     (0)  
   FeSO4           1.533e-19   1.533e-19   -18.814   -18.814     0.000     (0)  
   Fe(OH)3-        3.146e-20   3.142e-20   -19.502   -19.503    -0.001     (0)  
   Fe(HS)2         5.302e-39   5.302e-39   -38.276   -38.276     0.000     (0)  
   Fe(HS)3-        0.000e+00   0.000e+00   -54.343   -54.344    -0.001     (0)  
Fe(3)         1.302e-19
   Fe(OH)2+        1.171e-19   1.169e-19   -18.931   -18.932    -0.001     (0)  
   FeOH+2          1.165e-20   1.159e-20   -19.934   -19.936    -0.002     (0)  
   Fe(OH)3         1.426e-21   1.426e-21   -20.846   -20.846     0.000     (0)  
   Fe(OH)4-        1.481e-23   1.479e-23   -22.829   -22.830    -0.001     (0)  
   Fe+3            5.144e-26   5.082e-26   -25.289   -25.294    -0.005     (0)  
   FeSO4+          4.754e-32   4.747e-32   -31.323   -31.324    -0.001     (0)  
   Fe2(OH)2+4      3.107e-40   3.040e-40   -39.508   -39.517    -0.009     (0)  
   Fe(SO4)2-       0.000e+00   0.000e+00   -40.247   -40.248    -0.001     (0)  
   Fe3(OH)4+5      0.000e+00   0.000e+00   -55.997   -56.011    -0.015     (0)  
H(0)          2.000e-10
   H2              9.998e-11   9.998e-11   -10.000   -10.000     0.000     (0)  
O(0)          0.000e+00
   O2              0.000e+00   0.000e+00   -53.040   -53.040     0.000     (0)  
S(-2)         3.331e-18
   H2S             2.508e-18   2.508e-18   -17.601   -17.601     0.000     (0)  
   HS-             7.855e-19   7.844e-19   -18.105   -18.105    -0.001     (0)  
   S5-2            4.875e-21   4.849e-21   -20.312   -20.314    -0.002     (0)  
   S4-2            3.258e-21   3.240e-21   -20.487   -20.489    -0.002     (0)  
   S6-2            1.076e-22   1.070e-22   -21.968   -21.970    -0.002     (0)  
   S-2             5.991e-24   5.958e-24   -23.223   -23.225    -0.002     (0)  
   S3-2            1.456e-24   1.448e-24   -23.837   -23.839    -0.002     (0)  
   S2-2            1.160e-25   1.153e-25   -24.936   -24.938    -0.002     (0)  
   Fe(HS)2         5.302e-39   5.302e-39   -38.276   -38.276     0.000     (0)  
   Fe(HS)3-        0.000e+00   0.000e+00   -54.343   -54.344    -0.001     (0)  
S(6)          3.000e-11
   SO4-2           2.997e-11   2.981e-11   -10.523   -10.526    -0.002     (0)  
   HSO4-           2.792e-14   2.788e-14   -13.554   -13.555    -0.001     (0)  
   FeSO4           1.533e-19   1.533e-19   -18.814   -18.814     0.000     (0)  
   FeSO4+          4.754e-32   4.747e-32   -31.323   -31.324    -0.001     (0)  
   Fe(SO4)2-       0.000e+00   0.000e+00   -40.247   -40.248    -0.001     (0)  

------------------------------Saturation indices-------------------------------

  Phase               SI** log IAP   log K(373 K,   1 atm)

  Fe2(SO4)3       -77.04    -82.16   -5.13  Fe2(SO4)3
  Fe3(OH)8        -33.70    -13.47   20.22  Fe3(OH)8
  Ferrihydrite    -12.14     -7.25    4.89  Fe(OH)3
  FeS(ppt)        -19.19    -23.10   -3.92  FeS
  Goethite         -5.61     -7.25   -1.63  FeOOH
  Greigite        -73.93    -86.84  -12.91  Fe3S4
  Hematite         -5.94    -14.49   -8.55  Fe2O3
  Jarosite-H      -46.63    -66.85  -20.22  (H3O)Fe3(SO4)2(OH)6
  Lepidocrocite    -8.62     -7.25    1.37  FeOOH
  Mackinawite     -20.12    -16.58    3.54  FeS
  Maghemite       -20.88    -14.49    6.39  Fe2O3
  Magnetite        -9.78    -13.47   -3.70  Fe3O4
  Melanterite     -19.49    -21.54   -2.05  FeSO4:7H2O
  O2(g)           -50.22     13.18   63.40  O2
  pe_fix            2.72      2.72    0.00  e-
  pH_fix           -6.02     -6.02    0.00  H+
  Pyrite          -24.97    -40.63  -15.66  FeS2
  Pyrrhotite      -19.29      0.01   19.31  FeS
  Sulfur          -14.49    -11.01    3.48  S

**For a gas, SI = log10(fugacity). Fugacity = pressure * phi / 1 atm.
  For ideal gases, phi = 1.

Reaction step 11.

Using solution 1.	PURE WATER
Using pure phase assemblage 1.	
Using reaction 1.	

Reaction 1.	

	  1.000e-11 moles of the following reaction have been added:

	                 Relative
	Reactant            moles

	Fe1S3                1.00000

	                 Relative
	Element             moles
	Fe                   1.00000
	S                    3.00000

-------------------------------Phase assemblage--------------------------------

                                                      Moles in assemblage
Phase               SI  log IAP  log K(T, P)   Initial       Final       Delta

Greigite          0.93     0.00     -0.93    0.000e+00           0   0.000e+00
Mackinawite     -18.32   -14.78      3.54    0.000e+00           0   0.000e+00
Pyrite            9.33     0.00     -9.33    0.000e+00           0   0.000e+00
Pyrrhotite       -4.20    18.15     22.34    0.000e+00           0   0.000e+00

-----------------------------Solution composition------------------------------

	Elements           Molality       Moles

	Fe                2.000e-11   2.000e-11
	S                 6.000e-11   6.000e-11

----------------------------Description of solution----------------------------

                                       pH  =   6.016      Charge balance
                                       pe  =  -2.871      Adjusted to redox equilibrium
                        Activity of water  =   1.000
                 Ionic strength (mol/kgw)  =   9.653e-07
                       Mass of water (kg)  =   1.000e+00
                 Total alkalinity (eq/kg)  =  -8.000e-11
                         Temperature (°C)  = 100.00
                  Electrical balance (eq)  =  -1.715e-18
 Percent error, 100*(Cat-|An|)/(Cat+|An|)  =  -0.00
                               Iterations  =   5
                                  Total H  = 1.110124e+02
                                  Total O  = 5.550622e+01

----------------------------Distribution of species----------------------------

                                               Log       Log       Log    mole V
   Species          Molality    Activity  Molality  Activity     Gamma    cm³/mol

   H+              9.652e-07   9.639e-07    -6.015    -6.016    -0.001      0.00
   OH-             9.651e-07   9.638e-07    -6.015    -6.016    -0.001     (0)  
   H2O             5.551e+01   1.000e+00     1.744    -0.000     0.000     18.80
Fe(2)         2.000e-11
   Fe+2            1.944e-11   1.934e-11   -10.711   -10.714    -0.002     (0)  
   FeOH+           5.590e-13   5.583e-13   -12.253   -12.253    -0.001     (0)  
   Fe(OH)2         9.048e-16   9.048e-16   -15.043   -15.043     0.000     (0)  
   FeSO4           6.132e-19   6.132e-19   -18.212   -18.212     0.000     (0)  
   Fe(OH)3-        6.291e-20   6.283e-20   -19.201   -19.202    -0.001     (0)  
   Fe(HS)2         1.087e-35   1.087e-35   -34.964   -34.964     0.000     (0)  
   Fe(HS)3-        0.000e+00   0.000e+00   -49.526   -49.527    -0.001     (0)  
Fe(3)         1.841e-19
   Fe(OH)2+        1.656e-19   1.654e-19   -18.781   -18.782    -0.001     (0)  
   FeOH+2          1.648e-20   1.639e-20   -19.783   -19.785    -0.002     (0)  
   Fe(OH)3         2.016e-21   2.016e-21   -20.696   -20.696     0.000     (0)  
   Fe(OH)4-        2.094e-23   2.091e-23   -22.679   -22.680    -0.001     (0)  
   Fe+3            7.275e-26   7.187e-26   -25.138   -25.143    -0.005     (0)  
   FeSO4+          1.345e-31   1.343e-31   -30.871   -30.872    -0.001     (0)  
   Fe2(OH)2+4      6.213e-40   6.080e-40   -39.207   -39.216    -0.009     (0)  
   Fe(SO4)2-       3.203e-40   3.199e-40   -39.494   -39.495    -0.001     (0)  
   Fe3(OH)4+5      0.000e+00   0.000e+00   -55.545   -55.560    -0.015     (0)  
H(0)          4.000e-10
   H2              2.000e-10   2.000e-10    -9.699    -9.699     0.000     (0)  
O(0)          0.000e+00
   O2              0.000e+00   0.000e+00   -53.642   -53.642     0.000     (0)  
S(-2)         1.066e-16
   H2S             8.028e-17   8.028e-17   -16.095   -16.095     0.000     (0)  
   HS-             2.515e-17   2.511e-17   -16.600   -16.600    -0.001     (0)  
   S5-2            1.561e-19   1.552e-19   -18.807   -18.809    -0.002     (0)  
   S4-2            1.043e-19   1.037e-19   -18.982   -18.984    -0.002     (0)  
   S6-2            3.445e-21   3.426e-21   -20.463   -20.465    -0.002     (0)  
   S-2             1.918e-22   1.907e-22   -21.717   -21.720    -0.002     (0)  
   S3-2            4.660e-23   4.635e-23   -22.332   -22.334    -0.002     (0)  
   S2-2            3.713e-24   3.693e-24   -23.430   -23.433    -0.002     (0)  
   Fe(HS)2         1.087e-35   1.087e-35   -34.964   -34.964     0.000     (0)  
   Fe(HS)3-        0.000e+00   0.000e+00   -49.526   -49.527    -0.001     (0)  
S(6)          6.000e-11
[...]
  For ideal gases, phi = 1.

Reaction step 108.

Using solution 1.	PURE WATER
Using pure phase assemblage 1.	
Using reaction 1.	

Reaction 1.	

	  1.000e-02 moles of the following reaction have been added:

	                 Relative
	Reactant            moles

	Fe1S3                1.00000

	                 Relative
	Element             moles
	Fe                   1.00000
	S                    3.00000

-------------------------------Phase assemblage--------------------------------

                                                      Moles in assemblage
Phase               SI  log IAP  log K(T, P)   Initial       Final       Delta

Greigite          0.93     0.00     -0.93    0.000e+00           0   0.000e+00
Mackinawite     -11.52    -7.98      3.54    0.000e+00           0   0.000e+00
Pyrite            9.33     0.00     -9.33    8.111e-02   9.111e-02   1.000e-02
Pyrrhotite      -12.56     9.79     22.34    0.000e+00           0   0.000e+00

-----------------------------Solution composition------------------------------

	Elements           Molality       Moles

	Fe                1.659e-10   1.657e-10
	S                 9.126e-02   9.111e-02

----------------------------Description of solution----------------------------

                                       pH  =   1.674      Charge balance
                                       pe  =   1.585      Adjusted to redox equilibrium
                        Activity of water  =   0.998
                 Ionic strength (mol/kgw)  =   2.639e-02
                       Mass of water (kg)  =   9.984e-01
                 Total alkalinity (eq/kg)  =  -4.563e-02
                         Temperature (°C)  = 100.00
                  Electrical balance (eq)  =  -3.006e-11
 Percent error, 100*(Cat-|An|)/(Cat+|An|)  =  -0.00
                               Iterations  =   4
                                  Total H  = 1.110124e+02
                                  Total O  = 5.550622e+01

----------------------------Distribution of species----------------------------

                                               Log       Log       Log    mole V
   Species          Molality    Activity  Molality  Activity     Gamma    cm³/mol

   H+              2.460e-02   2.118e-02    -1.609    -1.674    -0.065      0.00
   OH-             5.282e-11   4.377e-11   -10.277   -10.359    -0.082     (0)  
   H2O             5.551e+01   9.980e-01     1.744    -0.001     0.000     18.80
Fe(2)         1.659e-10
   Fe+2            1.348e-10   6.875e-11    -9.870   -10.163    -0.292     (0)  
   FeSO4           3.108e-11   3.127e-11   -10.508   -10.505     0.003     (0)  
   Fe(HS)2         5.850e-14   5.886e-14   -13.233   -13.230     0.003     (0)  
   FeOH+           1.075e-16   9.014e-17   -15.969   -16.045    -0.076     (0)  
   Fe(HS)3-        7.536e-18   6.281e-18   -17.123   -17.202    -0.079     (0)  
   Fe(OH)2         6.595e-24   6.635e-24   -23.181   -23.178     0.003     (0)  
   Fe(OH)3-        2.494e-32   2.092e-32   -31.603   -31.679    -0.076     (0)  
Fe(3)         4.218e-19
   FeSO4+          2.331e-19   1.956e-19   -18.632   -18.709    -0.076     (0)  
   FeOH+2          1.526e-19   7.559e-20   -18.816   -19.122    -0.305     (0)  
   Fe+3            2.806e-20   7.300e-21   -19.552   -20.137    -0.585     (0)  
   Fe(SO4)2-       8.017e-21   6.682e-21   -20.096   -20.175    -0.079     (0)  
   Fe(OH)2+        4.116e-23   3.464e-23   -22.385   -22.460    -0.075     (0)  
   Fe(OH)3         1.906e-29   1.917e-29   -28.720   -28.717     0.003     (0)  
   Fe(OH)4-        1.073e-35   9.033e-36   -34.969   -35.044    -0.075     (0)  
   Fe2(OH)2+4      2.385e-37   1.293e-38   -36.623   -37.888    -1.266     (0)  
   Fe3(OH)4+5      0.000e+00   0.000e+00   -55.933   -57.911    -1.978     (0)  
H(0)          2.354e-10
   H2              1.177e-10   1.184e-10    -9.929    -9.927     0.003     (0)  
O(0)          0.000e+00
   O2              0.000e+00   0.000e+00   -53.192   -53.189     0.003     (0)  
S(-2)         6.845e-02
   H2S             6.844e-02   6.886e-02    -1.165    -1.162     0.003     (0)  
   HS-             1.183e-06   9.801e-07    -5.927    -6.009    -0.082     (0)  
   S5-2            5.712e-13   2.756e-13   -12.243   -12.560    -0.316     (0)  
   S4-2            3.817e-13   1.842e-13   -12.418   -12.735    -0.316     (0)  
   Fe(HS)2         5.850e-14   5.886e-14   -13.233   -13.230     0.003     (0)  
   S6-2            1.261e-14   6.085e-15   -13.899   -14.216    -0.316     (0)  
   S-2             6.839e-16   3.387e-16   -15.165   -15.470    -0.305     (0)  
   S3-2            1.705e-16   8.230e-17   -15.768   -16.085    -0.316     (0)  
   S2-2            1.359e-17   6.557e-18   -16.867   -17.183    -0.316     (0)  
   Fe(HS)3-        7.536e-18   6.281e-18   -17.123   -17.202    -0.079     (0)  
S(6)          2.282e-02
   HSO4-           2.103e-02   1.757e-02    -1.677    -1.755    -0.078     (0)  
   SO4-2           1.786e-03   8.550e-04    -2.748    -3.068    -0.320     (0)  
   FeSO4           3.108e-11   3.127e-11   -10.508   -10.505     0.003     (0)  
   FeSO4+          2.331e-19   1.956e-19   -18.632   -18.709    -0.076     (0)  
   Fe(SO4)2-       8.017e-21   6.682e-21   -20.096   -20.175    -0.079     (0)  

------------------------------Saturation indices-------------------------------

  Phase               SI** log IAP   log K(373 K,   1 atm)

  Fe2(SO4)3       -44.35    -49.48   -5.13  Fe2(SO4)3
  Fe3(OH)8        -57.27    -37.05   20.22  Fe3(OH)8
  Ferrihydrite    -20.01    -15.12    4.89  Fe(OH)3
  FeS(ppt)        -10.58    -14.50   -3.92  FeS
  Goethite        -13.48    -15.12   -1.63  FeOOH
  Greigite        -31.74    -44.66  -12.91  Fe3S4
  Hematite        -21.68    -30.23   -8.55  Fe2O3
  Jarosite-H      -37.96    -58.18  -20.22  (H3O)Fe3(SO4)2(OH)6
  Lepidocrocite   -16.49    -15.12    1.37  FeOOH
  Mackinawite     -11.52     -7.98    3.54  FeS
  Maghemite       -36.62    -30.23    6.39  Fe2O3
  Magnetite       -33.35    -37.05   -3.70  Fe3O4
  Melanterite     -11.19    -13.24   -2.05  FeSO4:7H2O
  O2(g)           -50.37     13.03   63.40  O2
  pe_fix           -1.58     -1.58    0.00  e-
  pH_fix           -1.67     -1.67    0.00  H+
  Pyrite           -0.00    -15.66  -15.66  FeS2
  Pyrrhotite      -10.69      8.62   19.31  FeS
  Sulfur            1.87      5.36    3.48  S

**For a gas, SI = log10(fugacity). Fugacity = pressure * phi / 1 atm.
  For ideal gases, phi = 1.

Reaction step 109.

Using solution 1.	PURE WATER
Using pure phase assemblage 1.	
Using reaction 1.	

Reaction 1.	

	  1.000e-02 moles of the following reaction have been added:

	                 Relative
	Reactant            moles

	Fe1S3                1.00000

	                 Relative
	Element             moles
	Fe                   1.00000
	S                    3.00000

-------------------------------Phase assemblage--------------------------------

                                                      Moles in assemblage
Phase               SI  log IAP  log K(T, P)   Initial       Final       Delta

Greigite          0.93     0.00     -0.93    0.000e+00           0   0.000e+00
Mackinawite     -11.57    -8.03      3.54    0.000e+00           0   0.000e+00
Pyrite            9.33     0.00     -9.33    9.111e-02   1.011e-01   1.000e-02
Pyrrhotite      -12.67     9.67     22.34    0.000e+00           0   0.000e+00

-----------------------------Solution composition------------------------------

	Elements           Molality       Moles

	Fe                1.623e-10   1.620e-10
	S                 1.013e-01   1.011e-01

----------------------------Description of solution----------------------------

                                       pH  =   1.633      Charge balance
                                       pe  =   1.631      Adjusted to redox equilibrium
                        Activity of water  =   0.998
                 Ionic strength (mol/kgw)  =   2.903e-02
                       Mass of water (kg)  =   9.982e-01
                 Total alkalinity (eq/kg)  =  -5.065e-02
                         Temperature (°C)  = 100.00
                  Electrical balance (eq)  =  -3.007e-11
 Percent error, 100*(Cat-|An|)/(Cat+|An|)  =  -0.00
                               Iterations  =   4
                                  Total H  = 1.110124e+02
                                  Total O  = 5.550622e+01

----------------------------Distribution of species----------------------------

                                               Log       Log       Log    mole V
   Species          Molality    Activity  Molality  Activity     Gamma    cm³/mol

   H+              2.718e-02   2.329e-02    -1.566    -1.633    -0.067      0.00
   OH-             4.840e-11   3.980e-11   -10.315   -10.400    -0.085     (0)  
   H2O             5.551e+01   9.978e-01     1.744    -0.001     0.000     18.80
Fe(2)         1.623e-10
   Fe+2            1.322e-10   6.582e-11    -9.879   -10.182    -0.303     (0)  
   FeSO4           2.997e-11   3.017e-11   -10.523   -10.520     0.003     (0)  
   Fe(HS)2         5.711e-14   5.749e-14   -13.243   -13.240     0.003     (0)  
   FeOH+           9.416e-17   7.847e-17   -16.026   -16.105    -0.079     (0)  
   Fe(HS)3-        7.489e-18   6.198e-18   -17.126   -17.208    -0.082     (0)  
   Fe(OH)2         5.217e-24   5.252e-24   -23.283   -23.280     0.003     (0)  
   Fe(OH)3-        1.807e-32   1.506e-32   -31.743   -31.822    -0.079     (0)  
Fe(3)         4.436e-19
   FeSO4+          2.519e-19   2.099e-19   -18.599   -18.678    -0.079     (0)  
   FeOH+2          1.518e-19   7.319e-20   -18.819   -19.136    -0.317     (0)  
   Fe+3            3.120e-20   7.773e-21   -19.506   -20.109    -0.604     (0)  
   Fe(SO4)2-       8.736e-21   7.231e-21   -20.059   -20.141    -0.082     (0)  
   Fe(OH)2+        3.648e-23   3.050e-23   -22.438   -22.516    -0.078     (0)  
   Fe(OH)3         1.525e-29   1.535e-29   -28.817   -28.814     0.003     (0)  
   Fe(OH)4-        7.867e-36   6.577e-36   -35.104   -35.182    -0.078     (0)  
   Fe2(OH)2+4      2.500e-37   1.213e-38   -36.602   -37.916    -1.314     (0)  
   Fe3(OH)4+5      0.000e+00   0.000e+00   -55.941   -57.994    -2.053     (0)  
H(0)          2.298e-10
   H2              1.149e-10   1.157e-10    -9.940    -9.937     0.003     (0)  
O(0)          0.000e+00
   O2              0.000e+00   0.000e+00   -53.172   -53.169     0.003     (0)  
S(-2)         7.597e-02
   H2S             7.597e-02   7.648e-02    -1.119    -1.116     0.003     (0)  
   HS-             1.204e-06   9.900e-07    -5.919    -6.004    -0.085     (0)  
   S5-2            5.397e-13   2.533e-13   -12.268   -12.596    -0.329     (0)  
   S4-2            3.606e-13   1.692e-13   -12.443   -12.771    -0.329     (0)  
   Fe(HS)2         5.711e-14   5.749e-14   -13.243   -13.240     0.003     (0)  
   S6-2            1.191e-14   5.591e-15   -13.924   -14.253    -0.329     (0)  
   S-2             6.453e-16   3.112e-16   -15.190   -15.507    -0.317     (0)  
   S3-2            1.611e-16   7.562e-17   -15.793   -16.121    -0.329     (0)  
   S2-2            1.284e-17   6.025e-18   -16.892   -17.220    -0.329     (0)  
   Fe(HS)3-        7.489e-18   6.198e-18   -17.126   -17.208    -0.082     (0)  
S(6)          2.532e-02
   HSO4-           2.347e-02   1.948e-02    -1.629    -1.710    -0.081     (0)  
   SO4-2           1.855e-03   8.619e-04    -2.732    -3.065    -0.333     (0)  
   FeSO4           2.997e-11   3.017e-11   -10.523   -10.520     0.003     (0)  
   FeSO4+          2.519e-19   2.099e-19   -18.599   -18.678    -0.079     (0)  
   Fe(SO4)2-       8.736e-21   7.231e-21   -20.059   -20.141    -0.082     (0)  

------------------------------Saturation indices-------------------------------

  Phase               SI** log IAP   log K(373 K,   1 atm)

  Fe2(SO4)3       -44.28    -49.41   -5.13  Fe2(SO4)3
  Fe3(OH)8        -57.57    -37.35   20.22  Fe3(OH)8
  Ferrihydrite    -20.10    -15.21    4.89  Fe(OH)3
  FeS(ppt)        -10.64    -14.55   -3.92  FeS
  Goethite        -13.58    -15.21   -1.63  FeOOH
  Greigite        -31.85    -44.77  -12.91  Fe3S4
  Hematite        -21.87    -30.42   -8.55  Fe2O3
  Jarosite-H      -38.08    -58.30  -20.22  (H3O)Fe3(SO4)2(OH)6
  Lepidocrocite   -16.58    -15.21    1.37  FeOOH
  Mackinawite     -11.57     -8.03    3.54  FeS
  Maghemite       -36.81    -30.42    6.39  Fe2O3
  Magnetite       -33.64    -37.34   -3.70  Fe3O4
  Melanterite     -11.20    -13.25   -2.05  FeSO4:7H2O
  O2(g)           -50.35     13.05   63.40  O2
  pe_fix           -1.63     -1.63    0.00  e-
  pH_fix           -1.63     -1.63    0.00  H+
  Pyrite           -0.00    -15.66  -15.66  FeS2
  Pyrrhotite      -10.74      8.56   19.31  FeS
  Sulfur            1.93      5.41    3.48  S

**For a gas, SI = log10(fugacity). Fugacity = pressure * phi / 1 atm.
  For ideal gases, phi = 1.

Reaction step 110.

Using solution 1.	PURE WATER
Using pure phase assemblage 1.	
Using reaction 1.	

Reaction 1.	

	  1.000e-02 moles of the following reaction have been added:

	                 Relative
	Reactant            moles

	Fe1S3                1.00000

	                 Relative
	Element             moles
	Fe                   1.00000
	S                    3.00000

-------------------------------Phase assemblage--------------------------------

                                                      Moles in assemblage
Phase               SI  log IAP  log K(T, P)   Initial       Final       Delta

Greigite          0.93     0.00     -0.93    0.000e+00           0   0.000e+00
Mackinawite     -11.62    -8.08      3.54    0.000e+00           0   0.000e+00
Pyrite            9.33     0.00     -9.33    1.011e-01   1.111e-01   1.000e-02
Pyrrhotite      -12.77     9.57     22.34    0.000e+00           0   0.000e+00

-----------------------------Solution composition------------------------------

	Elements           Molality       Moles

	Fe                1.591e-10   1.588e-10
	S                 1.113e-01   1.111e-01

----------------------------Description of solution----------------------------

                                       pH  =   1.595      Charge balance
                                       pe  =   1.673      Adjusted to redox equilibrium
                        Activity of water  =   0.998
                 Ionic strength (mol/kgw)  =   3.167e-02
                       Mass of water (kg)  =   9.980e-01
                 Total alkalinity (eq/kg)  =  -5.567e-02
                         Temperature (°C)  = 100.00
                  Electrical balance (eq)  =  -3.007e-11
 Percent error, 100*(Cat-|An|)/(Cat+|An|)  =  -0.00
                               Iterations  =   4
                                  Total H  = 1.110124e+02
                                  Total O  = 5.550622e+01

----------------------------Distribution of species----------------------------

                                               Log       Log       Log    mole V
   Species          Molality    Activity  Molality  Activity     Gamma    cm³/mol

   H+              2.975e-02   2.538e-02    -1.526    -1.595    -0.069      0.00
   OH-             4.472e-11   3.651e-11   -10.350   -10.438    -0.088     (0)  
   H2O             5.551e+01   9.976e-01     1.744    -0.001     0.000     18.80
Fe(2)         1.591e-10
   Fe+2            1.301e-10   6.329e-11    -9.886   -10.199    -0.313     (0)  
   FeSO4           2.899e-11   2.920e-11   -10.538   -10.535     0.003     (0)  
   Fe(HS)2         5.589e-14   5.629e-14   -13.253   -13.250     0.003     (0)  
   FeOH+           8.358e-17   6.922e-17   -16.078   -16.160    -0.082     (0)  
   Fe(HS)3-        7.447e-18   6.124e-18   -17.128   -17.213    -0.085     (0)  
   Fe(OH)2         4.219e-24   4.250e-24   -23.375   -23.372     0.003     (0)  
   Fe(OH)3-        1.350e-32   1.118e-32   -31.870   -31.952    -0.082     (0)  
Fe(3)         4.652e-19
   FeSO4+          2.702e-19   2.238e-19   -18.568   -18.650    -0.082     (0)  
   FeOH+2          1.511e-19   7.111e-20   -18.821   -19.148    -0.327     (0)  
   Fe+3            3.438e-20   8.232e-21   -19.464   -20.084    -0.621     (0)  
   Fe(SO4)2-       9.435e-21   7.759e-21   -20.025   -20.110    -0.085     (0)  
   Fe(OH)2+        3.271e-23   2.718e-23   -22.485   -22.566    -0.080     (0)  
   Fe(OH)3         1.246e-29   1.255e-29   -28.904   -28.901     0.003     (0)  
   Fe(OH)4-        5.936e-36   4.933e-36   -35.227   -35.307    -0.080     (0)  
   Fe2(OH)2+4      2.618e-37   1.145e-38   -36.582   -37.941    -1.359     (0)  
   Fe3(OH)4+5      0.000e+00   0.000e+00   -55.945   -58.069    -2.124     (0)  
H(0)          2.248e-10
   H2              1.124e-10   1.132e-10    -9.949    -9.946     0.003     (0)  
O(0)          0.000e+00
   O2              0.000e+00   0.000e+00   -53.154   -53.151     0.003     (0)  
S(-2)         8.350e-02
   H2S             8.350e-02   8.411e-02    -1.078    -1.075     0.003     (0)  
   HS-             1.224e-06   9.990e-07    -5.912    -6.000    -0.088     (0)  
   S5-2            5.128e-13   2.345e-13   -12.290   -12.630    -0.340     (0)  
   S4-2            3.427e-13   1.567e-13   -12.465   -12.805    -0.340     (0)  
   Fe(HS)2         5.589e-14   5.629e-14   -13.253   -13.250     0.003     (0)  
   S6-2            1.132e-14   5.176e-15   -13.946   -14.286    -0.340     (0)  
   S-2             6.125e-16   2.882e-16   -15.213   -15.540    -0.327     (0)  
   S3-2            1.531e-16   7.001e-17   -15.815   -16.155    -0.340     (0)  
   S2-2            1.220e-17   5.578e-18   -16.914   -17.253    -0.340     (0)  
   Fe(HS)3-        7.447e-18   6.124e-18   -17.128   -17.213    -0.085     (0)  
S(6)          2.783e-02
   HSO4-           2.591e-02   2.137e-02    -1.586    -1.670    -0.084     (0)  
   SO4-2           1.919e-03   8.675e-04    -2.717    -3.062    -0.345     (0)  
   FeSO4           2.899e-11   2.920e-11   -10.538   -10.535     0.003     (0)  
   FeSO4+          2.702e-19   2.238e-19   -18.568   -18.650    -0.082     (0)  
   Fe(SO4)2-       9.435e-21   7.759e-21   -20.025   -20.110    -0.085     (0)  

------------------------------Saturation indices-------------------------------

  Phase               SI** log IAP   log K(373 K,   1 atm)

  Fe2(SO4)3       -44.22    -49.35   -5.13  Fe2(SO4)3
  Fe3(OH)8        -57.83    -37.61   20.22  Fe3(OH)8
  Ferrihydrite    -20.19    -15.30    4.89  Fe(OH)3
  FeS(ppt)        -10.69    -14.60   -3.92  FeS
  Goethite        -13.67    -15.30   -1.63  FeOOH
  Greigite        -31.96    -44.87  -12.91  Fe3S4
  Hematite        -22.05    -30.60   -8.55  Fe2O3
  Jarosite-H      -38.18    -58.41  -20.22  (H3O)Fe3(SO4)2(OH)6
  Lepidocrocite   -16.67    -15.30    1.37  FeOOH
  Mackinawite     -11.62     -8.08    3.54  FeS
  Maghemite       -36.99    -30.60    6.39  Fe2O3
  Magnetite       -33.91    -37.61   -3.70  Fe3O4
  Melanterite     -11.22    -13.27   -2.05  FeSO4:7H2O
  O2(g)           -50.33     13.07   63.40  O2
  pe_fix           -1.67     -1.67    0.00  e-
  pH_fix           -1.60     -1.60    0.00  H+
  Pyrite           -0.00    -15.66  -15.66  FeS2
  Pyrrhotite      -10.79      8.51   19.31  FeS
  Sulfur            1.98      5.46    3.48  S

**For a gas, SI = log10(fugacity). Fugacity = pressure * phi / 1 atm.
  For ideal gases, phi = 1.

------------------
End of simulation.
------------------

------------------------------------
Reading input data for simulation 4.
------------------------------------

-------------------------------
End of Run after 0.443 Seconds.
-------------------------------

