   Input file: C:\Users\jt2020\OneDrive - Imperial College London\Data\Thermodynamics\Thermodynamics\Phreeq\Reaction Progress\All models with pyrrhotite\Polysulfides\S0 phase with S-2\Polysulfides with S0 reaction Fe and S unfixed.pqi
  Output file: C:\Users\jt2020\OneDrive - Imperial College London\Data\Thermodynamics\Thermodynamics\Phreeq\Reaction Progress\All models with pyrrhotite\Polysulfides\S0 phase with S-2\Polysulfides with S0 reaction Fe and S unfixed.pqo
Database file: C:\Users\jt2020\OneDrive - Imperial College London\Data\Thermodynamics\Thermodynamics\Phreeq\Reaction Progress\All models with pyrrhotite\Database\llnlpyrrminteq.dat

------------------
Reading data base.
------------------

	SOLUTION_MASTER_SPECIES
	SOLUTION_SPECIES
	SOLUTION_SPECIES
	PHASES
	SURFACE_MASTER_SPECIES
	SURFACE_SPECIES
	END
------------------------------------
Reading input data for simulation 1.
------------------------------------

	DATABASE C:\Users\jt2020\OneDrive - Imperial College London\Data\Thermodynamics\Thermodynamics\Phreeq\Reaction Progress\All models with pyrrhotite\Database\llnlpyrrminteq.dat
	TITLE Poly with S0   
	SOLUTION 1  PURE WATER
	            pH    10.0 charge
	          temp   25
	            pe    -9.29
	PHASES
	pH_fix
	      H + = H +
	      log_k = 0.0
	pe_fix
	      e- = e-
	      log_k 0.0
	Sulfur
	    S + 2e- = S-2
	    log_k      -15.026
	    delta_h    7.9 kcal  
	Mackinawite
	    FeS + H+ = Fe+2 + HS-
	    log_k     -2.137
	    delta_h   -3.578 kcal
	Pyrrhotite
	    FeS + 2Fe+3 = 3Fe+2 + Sulfur(s)   #reaction from Belzile et al 04 pyrr oxidation reaction
	    log_k     24.9953
	    delta_h        -17.9906 kcal        
	Greigite
	    Fe3S4 = 3Mackinawite(s) + Sulfur(s)
	    log_k     -6.475
	    delta_h   37.637 kcal
	Pyrite
	    FeS2 = 0.3333333333Greigite(s) + 0.6666666666Sulfur(s)
	    log_k     -10.373
	    delta_h   7.061 kcal
	NaNO3
	    NaNO3 = Na+ + NO3-
	    log_K -20
	NaCl
	    NaCl = Cl- + Na+
	    log_k     -20
	END
-----
TITLE
-----

 Poly with S0   

-------------------------------------------
Beginning of initial solution calculations.
-------------------------------------------

Initial solution 1.	PURE WATER

-----------------------------Solution composition------------------------------

	Elements           Molality       Moles

	Pure water     

----------------------------Description of solution----------------------------

                                       pH  =   7.081      Charge balance
                                       pe  =  -9.290    
                        Activity of water  =   0.685
                 Ionic strength (mol/kgw)  =   8.299e-08
                       Mass of water (kg)  =   1.000e+00
                 Total alkalinity (eq/kg)  =   3.868e-16
                         Temperature (°C)  =  25.00
                  Electrical balance (eq)  =  -3.868e-16
 Percent error, 100*(Cat-|An|)/(Cat+|An|)  =  -0.00
                               Iterations  =  31
                                  Total H  = 1.480613e+02
                                  Total O  = 5.550622e+01

----------------------------Distribution of species----------------------------

                                               Log       Log       Log    mole V
   Species          Molality    Activity  Molality  Activity     Gamma    cm³/mol

   OH-             8.299e-08   8.296e-08    -7.081    -7.081    -0.000     (0)  
   H+              8.299e-08   8.296e-08    -7.081    -7.081    -0.000      0.00
   H2O             5.551e+01   6.851e-01     1.744    -0.164     0.000     18.07
H(0)          3.705e+01
   H2              1.852e+01   1.852e+01     1.268     1.268     0.000     (0)  
O(0)          0.000e+00
   O2              0.000e+00   0.000e+00   -95.244   -95.244     0.000     (0)  

------------------------------Saturation indices-------------------------------

  Phase               SI** log IAP   log K(298 K,   1 atm)

  O2(g)           -92.28     -9.16   83.12  O2
  pe_fix            9.29      9.29    0.00  e-
  pH_fix           -7.08     -7.08    0.00  H+

**For a gas, SI = log10(fugacity). Fugacity = pressure * phi / 1 atm.
  For ideal gases, phi = 1.

------------------
End of simulation.
------------------

------------------------------------
Reading input data for simulation 2.
------------------------------------

	INCREMENTAL_REACTIONS
	REACTION
	Fe1S3 1
	10*1e-12 10*1e-11 10*1e-10 10*1e-9 10*1e-8 10*1e-7 10*1e-6 10*1e-5 10*1e-4  10*1e-3  10*1e-2 mol
	USE solution 1
	EQUILIBRIUM_PHASES 1
	        Mackinawite     0.0     0.0 
	        Greigite        0.0     0.0
	        Pyrite          0.0     0.0
	        Pyrrhotite      0.0     0.0
	USER_GRAPH 1 Simulation 6
	    -headings               Pyrite Greigite Mackinawite Pyrrhotite
	    -axis_titles            "Fe and S added, Log moles" "Mineral, moles"
	    -chart_title            "Pyrite pathway in a sulphur dominant system with Polysulfides as the oxidant"
	    -axis_scale sy_axis     auto auto auto auto log
	    -initial_solutions      false
	    -connect_simulations    false
	    -axis_scale y_axis      auto auto auto auto Log
	    -axis_scale sy_axis	    auto auto auto auto Log
	    -plot_concentration_vs  x
	  -start
	 5 PUT(GET(1) + RXN, 1)
	  20 PLOT_XY log10(GET(1)), EQUI("Pyrite") color = Green, line_w = 0,   	symbol = Plus, symbol_size = 5, y_axis = 2
	  30 PLOT_XY log10(GET(1)), EQUI("Greigite") color = Blue, line_w = 0,   	symbol = Plus, symbol_size = 5, y_axis = 2
	  40 PLOT_XY log10(GET(1)), EQUI("Mackinawite") color = Cyan, line_w = 0,   	symbol = Plus, symbol_size = 5, y_axis = 2
	  50 PLOT_XY log10(GET(1)), EQUI("Pyrrhotite") color = Red, line_w = 0,   	symbol = Plus, symbol_size = 5, y_axis = 2
	  -end
	    -active                 true
	SELECTED_OUTPUT
	    file                 Poly with S0 Sulfur dominated unfixed.csv
	    saturation_indices   Mackinawite  Greigite  Pyrite Pyrrhotite
	    reaction             
	    totals               Fe S 
	    equilibrium_phases   Mackinawite  Greigite  Pyrite Pyrrhotite
	END
-----------------------------------------
Beginning of batch-reaction calculations.
-----------------------------------------

Reaction step 1.

Using solution 1.	PURE WATER
Using pure phase assemblage 1.	
Using reaction 1.	

Reaction 1.	

	  1.000e-12 moles of the following reaction have been added:

	                 Relative
	Reactant            moles

	Fe1S3                1.00000

	                 Relative
	Element             moles
	Fe                   1.00000
	S                    3.00000

-------------------------------Phase assemblage--------------------------------

                                                      Moles in assemblage
Phase               SI  log IAP  log K(T, P)   Initial       Final       Delta

Greigite          6.47     0.00     -6.47    0.000e+00           0   0.000e+00
Mackinawite     -14.55   -16.69     -2.14    0.000e+00           0   0.000e+00
Pyrite           10.37     0.00    -10.37    0.000e+00           0   0.000e+00
Pyrrhotite        7.65    32.64     25.00    0.000e+00           0   0.000e+00

-----------------------------Solution composition------------------------------

	Elements           Molality       Moles

	Fe                1.000e-12   1.000e-12
	S                 3.000e-12   3.000e-12

----------------------------Description of solution----------------------------

                                       pH  =   7.081      Charge balance
                                       pe  =  -9.290      Adjusted to redox equilibrium
                        Activity of water  =   0.685
                 Ionic strength (mol/kgw)  =   8.299e-08
                       Mass of water (kg)  =   1.000e+00
                 Total alkalinity (eq/kg)  =   2.000e-12
                         Temperature (°C)  =  25.00
                  Electrical balance (eq)  =  -3.868e-16
 Percent error, 100*(Cat-|An|)/(Cat+|An|)  =  -0.00
                               Iterations  =  13
                                  Total H  = 1.480613e+02
                                  Total O  = 5.550622e+01

----------------------------Distribution of species----------------------------

                                               Log       Log       Log    mole V
   Species          Molality    Activity  Molality  Activity     Gamma    cm³/mol

   OH-             8.299e-08   8.296e-08    -7.081    -7.081    -0.000     (0)  
   H+              8.299e-08   8.296e-08    -7.081    -7.081    -0.000      0.00
   H2O             5.551e+01   6.851e-01     1.744    -0.164     0.000     18.07
Fe(2)         1.000e-12
   Fe+2            9.974e-13   9.960e-13   -12.001   -12.002    -0.001     (0)  
   FeOH+           2.602e-15   2.601e-15   -14.585   -14.585    -0.000     (0)  
   Fe(OH)2         1.828e-19   1.828e-19   -18.738   -18.738     0.000     (0)  
   Fe(OH)3-        5.611e-23   5.609e-23   -22.251   -22.251    -0.000     (0)  
   Fe(HS)2         2.586e-27   2.586e-27   -26.587   -26.587     0.000     (0)  
   Fe(HS)3-        4.808e-37   4.806e-37   -36.318   -36.318    -0.000     (0)  
   FeSO4           0.000e+00   0.000e+00   -66.426   -66.426     0.000     (0)  
Fe(3)         7.650e-27
   Fe(OH)2+        6.921e-27   6.919e-27   -26.160   -26.160    -0.000     (0)  
   Fe(OH)3         6.713e-28   6.713e-28   -27.173   -27.173     0.000     (0)  
   Fe(OH)4-        5.545e-29   5.543e-29   -28.256   -28.256    -0.000     (0)  
   FeOH+2          2.534e-30   2.530e-30   -29.596   -29.597    -0.001     (0)  
   Fe+3            4.760e-35   4.745e-35   -34.322   -34.324    -0.001     (0)  
   Fe2(OH)2+4      0.000e+00   0.000e+00   -57.761   -57.764    -0.002     (0)  
   Fe3(OH)4+5      0.000e+00   0.000e+00   -81.600   -81.604    -0.004     (0)  
   FeSO4+          0.000e+00   0.000e+00   -87.078   -87.078    -0.000     (0)  
   Fe(SO4)2-       0.000e+00   0.000e+00  -142.253  -142.253    -0.000     (0)  
H(0)          3.705e+01
   H2              1.852e+01   1.852e+01     1.268     1.268     0.000     (0)  
O(0)          0.000e+00
   O2              0.000e+00   0.000e+00   -95.244   -95.244     0.000     (0)  
S(-2)         3.000e-12
   HS-             1.707e-12   1.707e-12   -11.768   -11.768    -0.000     (0)  
   H2S             1.238e-12   1.238e-12   -11.907   -11.907     0.000     (0)  
   S5-2            5.235e-15   5.228e-15   -14.281   -14.282    -0.001     (0)  
   S4-2            3.054e-15   3.050e-15   -14.515   -14.516    -0.001     (0)  
   S6-2            2.709e-15   2.706e-15   -14.567   -14.568    -0.001     (0)  
   S-2             2.488e-18   2.485e-18   -17.604   -17.605    -0.001     (0)  
   S3-2            1.076e-18   1.075e-18   -17.968   -17.969    -0.001     (0)  
   S2-2            6.108e-20   6.100e-20   -19.214   -19.215    -0.001     (0)  
   Fe(HS)2         2.586e-27   2.586e-27   -26.587   -26.587     0.000     (0)  
   Fe(HS)3-        4.808e-37   4.806e-37   -36.318   -36.318    -0.000     (0)  
S(6)          0.000e+00
   SO4-2           0.000e+00   0.000e+00   -56.674   -56.675    -0.001     (0)  
   HSO4-           0.000e+00   0.000e+00   -61.769   -61.769    -0.000     (0)  
   FeSO4           0.000e+00   0.000e+00   -66.426   -66.426     0.000     (0)  
   FeSO4+          0.000e+00   0.000e+00   -87.078   -87.078    -0.000     (0)  
   Fe(SO4)2-       0.000e+00   0.000e+00  -142.253  -142.253    -0.000     (0)  

------------------------------Saturation indices-------------------------------

  Phase               SI** log IAP   log K(298 K,   1 atm)

  Fe2(SO4)3      -242.25   -238.67    3.58  Fe2(SO4)3
  Fe3(OH)8        -45.54    -25.31   20.22  Fe3(OH)8
  Ferrihydrite    -18.46    -13.57    4.89  Fe(OH)3
  FeS(ppt)        -12.77    -16.69   -3.92  FeS
  Goethite        -13.91    -13.41    0.50  FeOOH
  Greigite        -58.34    -73.33  -14.99  Fe3S4
  Hematite        -22.65    -26.65   -4.01  Fe2O3
  Jarosite-H     -169.96   -182.06  -12.10  (H3O)Fe3(SO4)2(OH)6
  Lepidocrocite   -14.78    -13.41    1.37  FeOOH
  Mackinawite     -14.55    -16.69   -2.14  FeS
  Maghemite       -33.04    -26.65    6.39  Fe2O3
  Magnetite       -28.39    -24.66    3.74  Fe3O4
  Melanterite     -67.36    -69.83   -2.47  FeSO4:7H2O
  O2(g)           -92.28     -9.16   83.12  O2
  pe_fix            9.29      9.29    0.00  e-
  pH_fix           -7.08     -7.08    0.00  H+
  Pyrite          -23.18    -39.96  -16.78  FeS2
  Pyrrhotite      -13.51      9.38   22.89  FeS
  Sulfur          -21.16    -36.18  -15.03  S

**For a gas, SI = log10(fugacity). Fugacity = pressure * phi / 1 atm.
  For ideal gases, phi = 1.

Reaction step 2.

Using solution 1.	PURE WATER
Using pure phase assemblage 1.	
Using reaction 1.	

Reaction 1.	

	  1.000e-12 moles of the following reaction have been added:

	                 Relative
	Reactant            moles

	Fe1S3                1.00000

	                 Relative
	Element             moles
	Fe                   1.00000
	S                    3.00000

-------------------------------Phase assemblage--------------------------------

                                                      Moles in assemblage
Phase               SI  log IAP  log K(T, P)   Initial       Final       Delta

Greigite          6.47     0.00     -6.47    0.000e+00           0   0.000e+00
Mackinawite     -13.95   -16.09     -2.14    0.000e+00           0   0.000e+00
Pyrite           10.37     0.00    -10.37    0.000e+00           0   0.000e+00
Pyrrhotite        7.95    32.94     25.00    0.000e+00           0   0.000e+00

-----------------------------Solution composition------------------------------

	Elements           Molality       Moles

	Fe                2.000e-12   2.000e-12
	S                 6.000e-12   6.000e-12

----------------------------Description of solution----------------------------

                                       pH  =   7.081      Charge balance
                                       pe  =  -9.290      Adjusted to redox equilibrium
                        Activity of water  =   0.685
                 Ionic strength (mol/kgw)  =   8.299e-08
                       Mass of water (kg)  =   1.000e+00
                 Total alkalinity (eq/kg)  =   4.000e-12
                         Temperature (°C)  =  25.00
                  Electrical balance (eq)  =  -3.868e-16
 Percent error, 100*(Cat-|An|)/(Cat+|An|)  =  -0.00
                               Iterations  =   5
                                  Total H  = 1.480613e+02
                                  Total O  = 5.550622e+01

----------------------------Distribution of species----------------------------

                                               Log       Log       Log    mole V
   Species          Molality    Activity  Molality  Activity     Gamma    cm³/mol

   OH-             8.299e-08   8.296e-08    -7.081    -7.081    -0.000     (0)  
   H+              8.299e-08   8.296e-08    -7.081    -7.081    -0.000      0.00
   H2O             5.551e+01   6.851e-01     1.744    -0.164     0.000     18.07
Fe(2)         2.000e-12
   Fe+2            1.995e-12   1.992e-12   -11.700   -11.701    -0.001     (0)  
   FeOH+           5.204e-15   5.202e-15   -14.284   -14.284    -0.000     (0)  
   Fe(OH)2         3.656e-19   3.656e-19   -18.437   -18.437     0.000     (0)  
   Fe(OH)3-        1.122e-22   1.122e-22   -21.950   -21.950    -0.000     (0)  
   Fe(HS)2         2.069e-26   2.069e-26   -25.684   -25.684     0.000     (0)  
   Fe(HS)3-        7.693e-36   7.690e-36   -35.114   -35.114    -0.000     (0)  
   FeSO4           0.000e+00   0.000e+00   -65.824   -65.824     0.000     (0)  
Fe(3)         1.530e-26
   Fe(OH)2+        1.384e-26   1.384e-26   -25.859   -25.859    -0.000     (0)  
   Fe(OH)3         1.343e-27   1.343e-27   -26.872   -26.872     0.000     (0)  
   Fe(OH)4-        1.109e-28   1.109e-28   -27.955   -27.955    -0.000     (0)  
   FeOH+2          5.067e-30   5.060e-30   -29.295   -29.296    -0.001     (0)  
   Fe+3            9.520e-35   9.491e-35   -34.021   -34.023    -0.001     (0)  
   Fe2(OH)2+4      0.000e+00   0.000e+00   -57.159   -57.162    -0.002     (0)  
   Fe3(OH)4+5      0.000e+00   0.000e+00   -80.697   -80.701    -0.004     (0)  
   FeSO4+          0.000e+00   0.000e+00   -86.476   -86.476    -0.000     (0)  
   Fe(SO4)2-       0.000e+00   0.000e+00  -141.350  -141.350    -0.000     (0)  
H(0)          3.705e+01
   H2              1.852e+01   1.852e+01     1.268     1.268     0.000     (0)  
O(0)          0.000e+00
   O2              0.000e+00   0.000e+00   -95.244   -95.244     0.000     (0)  
S(-2)         6.000e-12
   HS-             3.415e-12   3.414e-12   -11.467   -11.467    -0.000     (0)  
   H2S             2.476e-12   2.476e-12   -11.606   -11.606     0.000     (0)  
   S5-2            1.047e-14   1.046e-14   -13.980   -13.981    -0.001     (0)  
   S4-2            6.108e-15   6.100e-15   -14.214   -14.215    -0.001     (0)  
   S6-2            5.419e-15   5.412e-15   -14.266   -14.267    -0.001     (0)  
   S-2             4.976e-18   4.970e-18   -17.303   -17.304    -0.001     (0)  
   S3-2            2.152e-18   2.149e-18   -17.667   -17.668    -0.001     (0)  
   S2-2            1.222e-19   1.220e-19   -18.913   -18.914    -0.001     (0)  
   Fe(HS)2         2.069e-26   2.069e-26   -25.684   -25.684     0.000     (0)  
   Fe(HS)3-        7.693e-36   7.690e-36   -35.114   -35.114    -0.000     (0)  
S(6)          0.000e+00
   SO4-2           0.000e+00   0.000e+00   -56.373   -56.374    -0.001     (0)  
   HSO4-           0.000e+00   0.000e+00   -61.468   -61.468    -0.000     (0)  
   FeSO4           0.000e+00   0.000e+00   -65.824   -65.824     0.000     (0)  
   FeSO4+          0.000e+00   0.000e+00   -86.476   -86.476    -0.000     (0)  
   Fe(SO4)2-       0.000e+00   0.000e+00  -141.350  -141.350    -0.000     (0)  

------------------------------Saturation indices-------------------------------

  Phase               SI** log IAP   log K(298 K,   1 atm)

  Fe2(SO4)3      -240.75   -237.17    3.58  Fe2(SO4)3
  Fe3(OH)8        -44.63    -24.41   20.22  Fe3(OH)8
  Ferrihydrite    -18.16    -13.27    4.89  Fe(OH)3
  FeS(ppt)        -12.17    -16.09   -3.92  FeS
  Goethite        -13.61    -13.11    0.50  FeOOH
  Greigite        -56.23    -71.22  -14.99  Fe3S4
  Hematite        -22.04    -26.05   -4.01  Fe2O3
  Jarosite-H     -168.46   -180.56  -12.10  (H3O)Fe3(SO4)2(OH)6
  Lepidocrocite   -14.48    -13.11    1.37  FeOOH
  Mackinawite     -13.95    -16.09   -2.14  FeS
  Maghemite       -32.44    -26.05    6.39  Fe2O3
  Magnetite       -27.49    -23.75    3.74  Fe3O4
  Melanterite     -66.75    -69.22   -2.47  FeSO4:7H2O
  O2(g)           -92.28     -9.16   83.12  O2
  pe_fix            9.29      9.29    0.00  e-
  pH_fix           -7.08     -7.08    0.00  H+
  Pyrite          -22.28    -39.05  -16.78  FeS2
  Pyrrhotite      -12.91      9.98   22.89  FeS
  Sulfur          -20.86    -35.88  -15.03  S

**For a gas, SI = log10(fugacity). Fugacity = pressure * phi / 1 atm.
  For ideal gases, phi = 1.

Reaction step 3.

Using solution 1.	PURE WATER
Using pure phase assemblage 1.	
Using reaction 1.	

Reaction 1.	

	  1.000e-12 moles of the following reaction have been added:

	                 Relative
	Reactant            moles

	Fe1S3                1.00000

	                 Relative
	Element             moles
	Fe                   1.00000
	S                    3.00000

-------------------------------Phase assemblage--------------------------------

                                                      Moles in assemblage
Phase               SI  log IAP  log K(T, P)   Initial       Final       Delta

Greigite          6.47     0.00     -6.47    0.000e+00           0   0.000e+00
Mackinawite     -13.60   -15.73     -2.14    0.000e+00           0   0.000e+00
Pyrite           10.37     0.00    -10.37    0.000e+00           0   0.000e+00
Pyrrhotite        8.12    33.12     25.00    0.000e+00           0   0.000e+00

-----------------------------Solution composition------------------------------

	Elements           Molality       Moles

	Fe                3.000e-12   3.000e-12
	S                 9.000e-12   9.000e-12

----------------------------Description of solution----------------------------

                                       pH  =   7.081      Charge balance
                                       pe  =  -9.290      Adjusted to redox equilibrium
                        Activity of water  =   0.685
                 Ionic strength (mol/kgw)  =   8.300e-08
                       Mass of water (kg)  =   1.000e+00
                 Total alkalinity (eq/kg)  =   6.000e-12
                         Temperature (°C)  =  25.00
                  Electrical balance (eq)  =  -3.868e-16
 Percent error, 100*(Cat-|An|)/(Cat+|An|)  =  -0.00
                               Iterations  =   4
                                  Total H  = 1.480613e+02
                                  Total O  = 5.550622e+01

----------------------------Distribution of species----------------------------

                                               Log       Log       Log    mole V
   Species          Molality    Activity  Molality  Activity     Gamma    cm³/mol

   OH-             8.299e-08   8.296e-08    -7.081    -7.081    -0.000     (0)  
   H+              8.299e-08   8.296e-08    -7.081    -7.081    -0.000      0.00
   H2O             5.551e+01   6.851e-01     1.744    -0.164     0.000     18.07
Fe(2)         3.000e-12
   Fe+2            2.992e-12   2.988e-12   -11.524   -11.525    -0.001     (0)  
   FeOH+           7.806e-15   7.803e-15   -14.108   -14.108    -0.000     (0)  
   Fe(OH)2         5.485e-19   5.485e-19   -18.261   -18.261     0.000     (0)  
   Fe(OH)3-        1.683e-22   1.683e-22   -21.774   -21.774    -0.000     (0)  
   Fe(HS)2         6.982e-26   6.982e-26   -25.156   -25.156     0.000     (0)  
   Fe(HS)3-        3.894e-35   3.893e-35   -34.410   -34.410    -0.000     (0)  
   FeSO4           0.000e+00   0.000e+00   -65.472   -65.472     0.000     (0)  
Fe(3)         2.295e-26
   Fe(OH)2+        2.076e-26   2.076e-26   -25.683   -25.683    -0.000     (0)  
   Fe(OH)3         2.014e-27   2.014e-27   -26.696   -26.696     0.000     (0)  
   Fe(OH)4-        1.664e-28   1.663e-28   -27.779   -27.779    -0.000     (0)  
   FeOH+2          7.601e-30   7.591e-30   -29.119   -29.120    -0.001     (0)  
   Fe+3            1.428e-34   1.424e-34   -33.845   -33.847    -0.001     (0)  
   Fe2(OH)2+4      0.000e+00   0.000e+00   -56.807   -56.809    -0.002     (0)  
   Fe3(OH)4+5      0.000e+00   0.000e+00   -80.169   -80.172    -0.004     (0)  
   FeSO4+          0.000e+00   0.000e+00   -86.124   -86.124    -0.000     (0)  
   Fe(SO4)2-       0.000e+00   0.000e+00  -140.822  -140.822    -0.000     (0)  
H(0)          3.705e+01
   H2              1.852e+01   1.852e+01     1.268     1.268     0.000     (0)  
O(0)          0.000e+00
   O2              0.000e+00   0.000e+00   -95.244   -95.244     0.000     (0)  
S(-2)         9.000e-12
   HS-             5.122e-12   5.120e-12   -11.291   -11.291    -0.000     (0)  
   H2S             3.714e-12   3.714e-12   -11.430   -11.430     0.000     (0)  
   S5-2            1.570e-14   1.568e-14   -13.804   -13.805    -0.001     (0)  
   S4-2            9.162e-15   9.150e-15   -14.038   -14.039    -0.001     (0)  
   S6-2            8.129e-15   8.118e-15   -14.090   -14.091    -0.001     (0)  
   S-2             7.465e-18   7.455e-18   -17.127   -17.128    -0.001     (0)  
   S3-2            3.229e-18   3.224e-18   -17.491   -17.492    -0.001     (0)  
   S2-2            1.832e-19   1.830e-19   -18.737   -18.738    -0.001     (0)  
   Fe(HS)2         6.982e-26   6.982e-26   -25.156   -25.156     0.000     (0)  
   Fe(HS)3-        3.894e-35   3.893e-35   -34.410   -34.410    -0.000     (0)  
S(6)          0.000e+00
   SO4-2           0.000e+00   0.000e+00   -56.197   -56.198    -0.001     (0)  
   HSO4-           0.000e+00   0.000e+00   -61.292   -61.292    -0.000     (0)  
   FeSO4           0.000e+00   0.000e+00   -65.472   -65.472     0.000     (0)  
   FeSO4+          0.000e+00   0.000e+00   -86.124   -86.124    -0.000     (0)  
   Fe(SO4)2-       0.000e+00   0.000e+00  -140.822  -140.822    -0.000     (0)  

------------------------------Saturation indices-------------------------------

  Phase               SI** log IAP   log K(298 K,   1 atm)

  Fe2(SO4)3      -239.87   -236.29    3.58  Fe2(SO4)3
  Fe3(OH)8        -44.10    -23.88   20.22  Fe3(OH)8
  Ferrihydrite    -17.99    -13.10    4.89  Fe(OH)3
  FeS(ppt)        -11.82    -15.73   -3.92  FeS
  Goethite        -13.43    -12.93    0.50  FeOOH
  Greigite        -55.00    -69.99  -14.99  Fe3S4
  Hematite        -21.69    -25.70   -4.01  Fe2O3
  Jarosite-H     -167.58   -179.68  -12.10  (H3O)Fe3(SO4)2(OH)6
  Lepidocrocite   -14.30    -12.93    1.37  FeOOH
  Mackinawite     -13.60    -15.73   -2.14  FeS
  Maghemite       -32.09    -25.70    6.39  Fe2O3
  Magnetite       -26.96    -23.23    3.74  Fe3O4
  Melanterite     -66.40    -68.87   -2.47  FeSO4:7H2O
  O2(g)           -92.28     -9.16   83.12  O2
  pe_fix            9.29      9.29    0.00  e-
  pH_fix           -7.08     -7.08    0.00  H+
  Pyrite          -21.75    -38.52  -16.78  FeS2
  Pyrrhotite      -12.56     10.33   22.89  FeS
  Sulfur          -20.68    -35.71  -15.03  S

**For a gas, SI = log10(fugacity). Fugacity = pressure * phi / 1 atm.
  For ideal gases, phi = 1.

Reaction step 4.

Using solution 1.	PURE WATER
Using pure phase assemblage 1.	
Using reaction 1.	

Reaction 1.	

	  1.000e-12 moles of the following reaction have been added:

	                 Relative
	Reactant            moles

	Fe1S3                1.00000

	                 Relative
	Element             moles
	Fe                   1.00000
	S                    3.00000

-------------------------------Phase assemblage--------------------------------

                                                      Moles in assemblage
Phase               SI  log IAP  log K(T, P)   Initial       Final       Delta

Greigite          6.47     0.00     -6.47    0.000e+00           0   0.000e+00
Mackinawite     -13.35   -15.48     -2.14    0.000e+00           0   0.000e+00
Pyrite           10.37     0.00    -10.37    0.000e+00           0   0.000e+00
Pyrrhotite        8.25    33.24     25.00    0.000e+00           0   0.000e+00

-----------------------------Solution composition------------------------------

	Elements           Molality       Moles

	Fe                4.000e-12   4.000e-12
	S                 1.200e-11   1.200e-11

----------------------------Description of solution----------------------------

                                       pH  =   7.081      Charge balance
                                       pe  =  -9.290      Adjusted to redox equilibrium
                        Activity of water  =   0.685
                 Ionic strength (mol/kgw)  =   8.300e-08
                       Mass of water (kg)  =   1.000e+00
                 Total alkalinity (eq/kg)  =   8.000e-12
                         Temperature (°C)  =  25.00
                  Electrical balance (eq)  =  -3.868e-16
 Percent error, 100*(Cat-|An|)/(Cat+|An|)  =  -0.00
                               Iterations  =   4
                                  Total H  = 1.480613e+02
                                  Total O  = 5.550622e+01

----------------------------Distribution of species----------------------------

                                               Log       Log       Log    mole V
   Species          Molality    Activity  Molality  Activity     Gamma    cm³/mol

   OH-             8.299e-08   8.296e-08    -7.081    -7.081    -0.000     (0)  
   H+              8.299e-08   8.296e-08    -7.081    -7.081    -0.000      0.00
   H2O             5.551e+01   6.851e-01     1.744    -0.164     0.000     18.07
Fe(2)         4.000e-12
   Fe+2            3.990e-12   3.984e-12   -11.399   -11.400    -0.001     (0)  
   FeOH+           1.041e-14   1.040e-14   -13.983   -13.983    -0.000     (0)  
   Fe(OH)2         7.313e-19   7.313e-19   -18.136   -18.136     0.000     (0)  
   Fe(OH)3-        2.244e-22   2.244e-22   -21.649   -21.649    -0.000     (0)  
   Fe(HS)2         1.655e-25   1.655e-25   -24.781   -24.781     0.000     (0)  
   Fe(HS)3-        1.231e-34   1.230e-34   -33.910   -33.910    -0.000     (0)  
   FeSO4           0.000e+00   0.000e+00   -65.222   -65.222     0.000     (0)  
Fe(3)         3.060e-26
   Fe(OH)2+        2.768e-26   2.768e-26   -25.558   -25.558    -0.000     (0)  
   Fe(OH)3         2.685e-27   2.685e-27   -26.571   -26.571     0.000     (0)  
   Fe(OH)4-        2.218e-28   2.217e-28   -27.654   -27.654    -0.000     (0)  
   FeOH+2          1.013e-29   1.012e-29   -28.994   -28.995    -0.001     (0)  
   Fe+3            1.904e-34   1.898e-34   -33.720   -33.722    -0.001     (0)  
   Fe2(OH)2+4      0.000e+00   0.000e+00   -56.557   -56.560    -0.002     (0)  
   Fe3(OH)4+5      0.000e+00   0.000e+00   -79.794   -79.797    -0.004     (0)  
   FeSO4+          0.000e+00   0.000e+00   -85.874   -85.874    -0.000     (0)  
   Fe(SO4)2-       0.000e+00   0.000e+00  -140.447  -140.447    -0.000     (0)  
H(0)          3.705e+01
   H2              1.852e+01   1.852e+01     1.268     1.268     0.000     (0)  
O(0)          0.000e+00
   O2              0.000e+00   0.000e+00   -95.244   -95.244     0.000     (0)  
S(-2)         1.200e-11
   HS-             6.829e-12   6.827e-12   -11.166   -11.166    -0.000     (0)  
   H2S             4.952e-12   4.952e-12   -11.305   -11.305     0.000     (0)  
   S5-2            2.094e-14   2.091e-14   -13.679   -13.680    -0.001     (0)  
   S4-2            1.222e-14   1.220e-14   -13.913   -13.914    -0.001     (0)  
   S6-2            1.084e-14   1.082e-14   -13.965   -13.966    -0.001     (0)  
   S-2             9.953e-18   9.939e-18   -17.002   -17.003    -0.001     (0)  
   S3-2            4.305e-18   4.299e-18   -17.366   -17.367    -0.001     (0)  
   S2-2            2.443e-19   2.440e-19   -18.612   -18.613    -0.001     (0)  
   Fe(HS)2         1.655e-25   1.655e-25   -24.781   -24.781     0.000     (0)  
   Fe(HS)3-        1.231e-34   1.230e-34   -33.910   -33.910    -0.000     (0)  
S(6)          0.000e+00
   SO4-2           0.000e+00   0.000e+00   -56.072   -56.073    -0.001     (0)  
   HSO4-           0.000e+00   0.000e+00   -61.167   -61.167    -0.000     (0)  
   FeSO4           0.000e+00   0.000e+00   -65.222   -65.222     0.000     (0)  
   FeSO4+          0.000e+00   0.000e+00   -85.874   -85.874    -0.000     (0)  
   Fe(SO4)2-       0.000e+00   0.000e+00  -140.447  -140.447    -0.000     (0)  

------------------------------Saturation indices-------------------------------

  Phase               SI** log IAP   log K(298 K,   1 atm)

  Fe2(SO4)3      -239.24   -235.66    3.58  Fe2(SO4)3
  Fe3(OH)8        -43.73    -23.51   20.22  Fe3(OH)8
  Ferrihydrite    -17.86    -12.97    4.89  Fe(OH)3
  FeS(ppt)        -11.57    -15.48   -3.92  FeS
  Goethite        -13.31    -12.81    0.50  FeOOH
  Greigite        -54.12    -69.12  -14.99  Fe3S4
  Hematite        -21.44    -25.45   -4.01  Fe2O3
  Jarosite-H     -166.95   -179.05  -12.10  (H3O)Fe3(SO4)2(OH)6
  Lepidocrocite   -14.18    -12.81    1.37  FeOOH
  Mackinawite     -13.35    -15.48   -2.14  FeS
  Maghemite       -31.84    -25.45    6.39  Fe2O3
  Magnetite       -26.59    -22.85    3.74  Fe3O4
  Melanterite     -66.15    -68.62   -2.47  FeSO4:7H2O
  O2(g)           -92.28     -9.16   83.12  O2
  pe_fix            9.29      9.29    0.00  e-
  pH_fix           -7.08     -7.08    0.00  H+
  Pyrite          -21.37    -38.15  -16.78  FeS2
  Pyrrhotite      -12.31     10.58   22.89  FeS
  Sulfur          -20.56    -35.58  -15.03  S

**For a gas, SI = log10(fugacity). Fugacity = pressure * phi / 1 atm.
  For ideal gases, phi = 1.

Reaction step 5.

Using solution 1.	PURE WATER
Using pure phase assemblage 1.	
Using reaction 1.	

Reaction 1.	

	  1.000e-12 moles of the following reaction have been added:

	                 Relative
	Reactant            moles

	Fe1S3                1.00000

	                 Relative
	Element             moles
	Fe                   1.00000
	S                    3.00000

-------------------------------Phase assemblage--------------------------------

                                                      Moles in assemblage
Phase               SI  log IAP  log K(T, P)   Initial       Final       Delta

Greigite          6.47     0.00     -6.47    0.000e+00           0   0.000e+00
Mackinawite     -13.15   -15.29     -2.14    0.000e+00           0   0.000e+00
Pyrite           10.37     0.00    -10.37    0.000e+00           0   0.000e+00
Pyrrhotite        8.35    33.34     25.00    0.000e+00           0   0.000e+00

-----------------------------Solution composition------------------------------

	Elements           Molality       Moles

	Fe                5.000e-12   5.000e-12
	S                 1.500e-11   1.500e-11

----------------------------Description of solution----------------------------

                                       pH  =   7.081      Charge balance
                                       pe  =  -9.290      Adjusted to redox equilibrium
                        Activity of water  =   0.685
                 Ionic strength (mol/kgw)  =   8.300e-08
                       Mass of water (kg)  =   1.000e+00
                 Total alkalinity (eq/kg)  =   1.000e-11
                         Temperature (°C)  =  25.00
                  Electrical balance (eq)  =  -3.867e-16
 Percent error, 100*(Cat-|An|)/(Cat+|An|)  =  -0.00
                               Iterations  =   3
                                  Total H  = 1.480613e+02
                                  Total O  = 5.550622e+01

----------------------------Distribution of species----------------------------

                                               Log       Log       Log    mole V
   Species          Molality    Activity  Molality  Activity     Gamma    cm³/mol

   OH-             8.299e-08   8.296e-08    -7.081    -7.081    -0.000     (0)  
   H+              8.299e-08   8.296e-08    -7.081    -7.081    -0.000      0.00
   H2O             5.551e+01   6.851e-01     1.744    -0.164     0.000     18.07
Fe(2)         5.000e-12
   Fe+2            4.987e-12   4.980e-12   -11.302   -11.303    -0.001     (0)  
   FeOH+           1.301e-14   1.301e-14   -13.886   -13.886    -0.000     (0)  
   Fe(OH)2         9.141e-19   9.141e-19   -18.039   -18.039     0.000     (0)  
   Fe(OH)3-        2.806e-22   2.805e-22   -21.552   -21.552    -0.000     (0)  
   Fe(HS)2         3.233e-25   3.233e-25   -24.490   -24.490     0.000     (0)  
   Fe(HS)3-        3.005e-34   3.004e-34   -33.522   -33.522    -0.000     (0)  
   FeSO4           0.000e+00   0.000e+00   -65.028   -65.028     0.000     (0)  
Fe(3)         3.825e-26
   Fe(OH)2+        3.461e-26   3.459e-26   -25.461   -25.461    -0.000     (0)  
   Fe(OH)3         3.356e-27   3.356e-27   -26.474   -26.474     0.000     (0)  
   Fe(OH)4-        2.773e-28   2.772e-28   -27.557   -27.557    -0.000     (0)  
   FeOH+2          1.267e-29   1.265e-29   -28.897   -28.898    -0.001     (0)  
   Fe+3            2.380e-34   2.373e-34   -33.623   -33.625    -0.001     (0)  
   Fe2(OH)2+4      0.000e+00   0.000e+00   -56.363   -56.366    -0.002     (0)  
   Fe3(OH)4+5      0.000e+00   0.000e+00   -79.503   -79.507    -0.004     (0)  
   FeSO4+          0.000e+00   0.000e+00   -85.680   -85.680    -0.000     (0)  
   Fe(SO4)2-       0.000e+00   0.000e+00  -140.156  -140.156    -0.000     (0)  
H(0)          3.705e+01
   H2              1.852e+01   1.852e+01     1.268     1.268     0.000     (0)  
O(0)          0.000e+00
   O2              0.000e+00   0.000e+00   -95.244   -95.244     0.000     (0)  
S(-2)         1.500e-11
   HS-             8.537e-12   8.534e-12   -11.069   -11.069    -0.000     (0)  
   H2S             6.190e-12   6.190e-12   -11.208   -11.208     0.000     (0)  
   S5-2            2.617e-14   2.614e-14   -13.582   -13.583    -0.001     (0)  
   S4-2            1.527e-14   1.525e-14   -13.816   -13.817    -0.001     (0)  
   S6-2            1.355e-14   1.353e-14   -13.868   -13.869    -0.001     (0)  
   S-2             1.244e-17   1.242e-17   -16.905   -16.906    -0.001     (0)  
   S3-2            5.381e-18   5.374e-18   -17.269   -17.270    -0.001     (0)  
   S2-2            3.054e-19   3.050e-19   -18.515   -18.516    -0.001     (0)  
   Fe(HS)2         3.233e-25   3.233e-25   -24.490   -24.490     0.000     (0)  
   Fe(HS)3-        3.005e-34   3.004e-34   -33.522   -33.522    -0.000     (0)  
S(6)          0.000e+00
   SO4-2           0.000e+00   0.000e+00   -55.975   -55.976    -0.001     (0)  
   HSO4-           0.000e+00   0.000e+00   -61.070   -61.070    -0.000     (0)  
   FeSO4           0.000e+00   0.000e+00   -65.028   -65.028     0.000     (0)  
   FeSO4+          0.000e+00   0.000e+00   -85.680   -85.680    -0.000     (0)  
   Fe(SO4)2-       0.000e+00   0.000e+00  -140.156  -140.156    -0.000     (0)  

------------------------------Saturation indices-------------------------------

  Phase               SI** log IAP   log K(298 K,   1 atm)

  Fe2(SO4)3      -238.76   -235.18    3.58  Fe2(SO4)3
  Fe3(OH)8        -43.44    -23.22   20.22  Fe3(OH)8
  Ferrihydrite    -17.77    -12.87    4.89  Fe(OH)3
  FeS(ppt)        -11.38    -15.29   -3.92  FeS
  Goethite        -13.21    -12.71    0.50  FeOOH
  Greigite        -53.45    -68.44  -14.99  Fe3S4
  Hematite        -21.25    -25.26   -4.01  Fe2O3
  Jarosite-H     -166.47   -178.57  -12.10  (H3O)Fe3(SO4)2(OH)6
  Lepidocrocite   -14.08    -12.71    1.37  FeOOH
  Mackinawite     -13.15    -15.29   -2.14  FeS
  Maghemite       -31.64    -25.26    6.39  Fe2O3
  Magnetite       -26.30    -22.56    3.74  Fe3O4
  Melanterite     -65.96    -68.43   -2.47  FeSO4:7H2O
  O2(g)           -92.28     -9.16   83.12  O2
  pe_fix            9.29      9.29    0.00  e-
  pH_fix           -7.08     -7.08    0.00  H+
  Pyrite          -21.08    -37.86  -16.78  FeS2
  Pyrrhotite      -12.11     10.77   22.89  FeS
  Sulfur          -20.46    -35.49  -15.03  S

**For a gas, SI = log10(fugacity). Fugacity = pressure * phi / 1 atm.
  For ideal gases, phi = 1.

Reaction step 6.

Using solution 1.	PURE WATER
Using pure phase assemblage 1.	
Using reaction 1.	

Reaction 1.	

	  1.000e-12 moles of the following reaction have been added:

	                 Relative
	Reactant            moles

	Fe1S3                1.00000

	                 Relative
	Element             moles
	Fe                   1.00000
	S                    3.00000

-------------------------------Phase assemblage--------------------------------

                                                      Moles in assemblage
Phase               SI  log IAP  log K(T, P)   Initial       Final       Delta

Greigite          6.47     0.00     -6.47    0.000e+00           0   0.000e+00
Mackinawite     -13.00   -15.13     -2.14    0.000e+00           0   0.000e+00
Pyrite           10.37     0.00    -10.37    0.000e+00           0   0.000e+00
Pyrrhotite        8.43    33.42     25.00    0.000e+00           0   0.000e+00

-----------------------------Solution composition------------------------------

	Elements           Molality       Moles

	Fe                6.000e-12   6.000e-12
	S                 1.800e-11   1.800e-11

----------------------------Description of solution----------------------------

                                       pH  =   7.081      Charge balance
                                       pe  =  -9.290      Adjusted to redox equilibrium
                        Activity of water  =   0.685
                 Ionic strength (mol/kgw)  =   8.301e-08
                       Mass of water (kg)  =   1.000e+00
                 Total alkalinity (eq/kg)  =   1.200e-11
                         Temperature (°C)  =  25.00
                  Electrical balance (eq)  =  -3.867e-16
 Percent error, 100*(Cat-|An|)/(Cat+|An|)  =  -0.00
                               Iterations  =   3
                                  Total H  = 1.480613e+02
                                  Total O  = 5.550622e+01

----------------------------Distribution of species----------------------------

                                               Log       Log       Log    mole V
   Species          Molality    Activity  Molality  Activity     Gamma    cm³/mol

   OH-             8.299e-08   8.296e-08    -7.081    -7.081    -0.000     (0)  
   H+              8.299e-08   8.296e-08    -7.081    -7.081    -0.000      0.00
   H2O             5.551e+01   6.851e-01     1.744    -0.164     0.000     18.07
Fe(2)         6.000e-12
   Fe+2            5.984e-12   5.976e-12   -11.223   -11.224    -0.001     (0)  
   FeOH+           1.561e-14   1.561e-14   -13.807   -13.807    -0.000     (0)  
   Fe(OH)2         1.097e-18   1.097e-18   -17.960   -17.960     0.000     (0)  
   Fe(OH)3-        3.367e-22   3.366e-22   -21.473   -21.473    -0.000     (0)  
   Fe(HS)2         5.586e-25   5.586e-25   -24.253   -24.253     0.000     (0)  
   Fe(HS)3-        6.231e-34   6.229e-34   -33.205   -33.206    -0.000     (0)  
   FeSO4           0.000e+00   0.000e+00   -64.870   -64.870     0.000     (0)  
Fe(3)         4.590e-26
   Fe(OH)2+        4.153e-26   4.151e-26   -25.382   -25.382    -0.000     (0)  
   Fe(OH)3         4.028e-27   4.028e-27   -26.395   -26.395     0.000     (0)  
   Fe(OH)4-        3.327e-28   3.326e-28   -27.478   -27.478    -0.000     (0)  
   FeOH+2          1.520e-29   1.518e-29   -28.818   -28.819    -0.001     (0)  
   Fe+3            2.856e-34   2.847e-34   -33.544   -33.546    -0.001     (0)  
   Fe2(OH)2+4      0.000e+00   0.000e+00   -56.205   -56.207    -0.002     (0)  
   Fe3(OH)4+5      0.000e+00   0.000e+00   -79.266   -79.269    -0.004     (0)  
   FeSO4+          0.000e+00   0.000e+00   -85.522   -85.522    -0.000     (0)  
   Fe(SO4)2-       0.000e+00   0.000e+00  -139.919  -139.919    -0.000     (0)  
H(0)          3.705e+01
   H2              1.852e+01   1.852e+01     1.268     1.268     0.000     (0)  
O(0)          0.000e+00
   O2              0.000e+00   0.000e+00   -95.244   -95.244     0.000     (0)  
S(-2)         1.800e-11
   HS-             1.024e-11   1.024e-11   -10.990   -10.990    -0.000     (0)  
   H2S             7.428e-12   7.428e-12   -11.129   -11.129     0.000     (0)  
   S5-2            3.141e-14   3.137e-14   -13.503   -13.504    -0.001     (0)  
   S4-2            1.833e-14   1.830e-14   -13.737   -13.738    -0.001     (0)  
   S6-2            1.626e-14   1.624e-14   -13.789   -13.790    -0.001     (0)  
   S-2             1.493e-17   1.491e-17   -16.826   -16.827    -0.001     (0)  
   S3-2            6.457e-18   6.448e-18   -17.190   -17.191    -0.001     (0)  
   S2-2            3.665e-19   3.660e-19   -18.436   -18.437    -0.001     (0)  
   Fe(HS)2         5.586e-25   5.586e-25   -24.253   -24.253     0.000     (0)  
   Fe(HS)3-        6.231e-34   6.229e-34   -33.205   -33.206    -0.000     (0)  
S(6)          0.000e+00
   SO4-2           0.000e+00   0.000e+00   -55.896   -55.897    -0.001     (0)  
   HSO4-           0.000e+00   0.000e+00   -60.991   -60.991    -0.000     (0)  
   FeSO4           0.000e+00   0.000e+00   -64.870   -64.870     0.000     (0)  
   FeSO4+          0.000e+00   0.000e+00   -85.522   -85.522    -0.000     (0)  
   Fe(SO4)2-       0.000e+00   0.000e+00  -139.919  -139.919    -0.000     (0)  

------------------------------Saturation indices-------------------------------

  Phase               SI** log IAP   log K(298 K,   1 atm)

  Fe2(SO4)3      -238.36   -234.78    3.58  Fe2(SO4)3
  Fe3(OH)8        -43.20    -22.98   20.22  Fe3(OH)8
  Ferrihydrite    -17.69    -12.79    4.89  Fe(OH)3
  FeS(ppt)        -11.22    -15.13   -3.92  FeS
  Goethite        -13.13    -12.63    0.50  FeOOH
  Greigite        -52.89    -67.88  -14.99  Fe3S4
  Hematite        -21.09    -25.10   -4.01  Fe2O3
  Jarosite-H     -166.07   -178.17  -12.10  (H3O)Fe3(SO4)2(OH)6
  Lepidocrocite   -14.00    -12.63    1.37  FeOOH
  Mackinawite     -13.00    -15.13   -2.14  FeS
  Maghemite       -31.48    -25.10    6.39  Fe2O3
  Magnetite       -26.06    -22.32    3.74  Fe3O4
  Melanterite     -65.80    -68.27   -2.47  FeSO4:7H2O
  O2(g)           -92.28     -9.16   83.12  O2
  pe_fix            9.29      9.29    0.00  e-
  pH_fix           -7.08     -7.08    0.00  H+
  Pyrite          -20.84    -37.62  -16.78  FeS2
  Pyrrhotite      -11.96     10.93   22.89  FeS
  Sulfur          -20.38    -35.41  -15.03  S

**For a gas, SI = log10(fugacity). Fugacity = pressure * phi / 1 atm.
  For ideal gases, phi = 1.

Reaction step 7.

Using solution 1.	PURE WATER
Using pure phase assemblage 1.	
Using reaction 1.	

Reaction 1.	

	  1.000e-12 moles of the following reaction have been added:

	                 Relative
	Reactant            moles

	Fe1S3                1.00000

	                 Relative
	Element             moles
	Fe                   1.00000
	S                    3.00000

-------------------------------Phase assemblage--------------------------------

                                                      Moles in assemblage
Phase               SI  log IAP  log K(T, P)   Initial       Final       Delta

Greigite          6.47     0.00     -6.47    0.000e+00           0   0.000e+00
Mackinawite     -12.86   -15.00     -2.14    0.000e+00           0   0.000e+00
Pyrite           10.37     0.00    -10.37    0.000e+00           0   0.000e+00
Pyrrhotite        8.49    33.49     25.00    0.000e+00           0   0.000e+00

-----------------------------Solution composition------------------------------

	Elements           Molality       Moles

	Fe                7.000e-12   7.000e-12
	S                 2.100e-11   2.100e-11

----------------------------Description of solution----------------------------

                                       pH  =   7.081      Charge balance
                                       pe  =  -9.290      Adjusted to redox equilibrium
                        Activity of water  =   0.685
                 Ionic strength (mol/kgw)  =   8.301e-08
                       Mass of water (kg)  =   1.000e+00
                 Total alkalinity (eq/kg)  =   1.400e-11
                         Temperature (°C)  =  25.00
                  Electrical balance (eq)  =  -3.867e-16
 Percent error, 100*(Cat-|An|)/(Cat+|An|)  =  -0.00
                               Iterations  =   3
                                  Total H  = 1.480613e+02
                                  Total O  = 5.550622e+01

----------------------------Distribution of species----------------------------

                                               Log       Log       Log    mole V
   Species          Molality    Activity  Molality  Activity     Gamma    cm³/mol

   OH-             8.299e-08   8.296e-08    -7.081    -7.081    -0.000     (0)  
   H+              8.299e-08   8.296e-08    -7.081    -7.081    -0.000      0.00
   H2O             5.551e+01   6.851e-01     1.744    -0.164     0.000     18.07
Fe(2)         7.000e-12
   Fe+2            6.982e-12   6.972e-12   -11.156   -11.157    -0.001     (0)  
   FeOH+           1.821e-14   1.821e-14   -13.740   -13.740    -0.000     (0)  
   Fe(OH)2         1.280e-18   1.280e-18   -17.893   -17.893     0.000     (0)  
   Fe(OH)3-        3.928e-22   3.927e-22   -21.406   -21.406    -0.000     (0)  
   Fe(HS)2         8.870e-25   8.870e-25   -24.052   -24.052     0.000     (0)  
   Fe(HS)3-        1.154e-33   1.154e-33   -32.938   -32.938    -0.000     (0)  
   FeSO4           0.000e+00   0.000e+00   -64.736   -64.736     0.000     (0)  
Fe(3)         5.355e-26
   Fe(OH)2+        4.845e-26   4.843e-26   -25.315   -25.315    -0.000     (0)  
   Fe(OH)3         4.699e-27   4.699e-27   -26.328   -26.328     0.000     (0)  
   Fe(OH)4-        3.882e-28   3.880e-28   -27.411   -27.411    -0.000     (0)  
   FeOH+2          1.774e-29   1.771e-29   -28.751   -28.752    -0.001     (0)  
   Fe+3            3.332e-34   3.322e-34   -33.477   -33.479    -0.001     (0)  
   Fe2(OH)2+4      0.000e+00   0.000e+00   -56.071   -56.073    -0.002     (0)  
   Fe3(OH)4+5      0.000e+00   0.000e+00   -79.065   -79.068    -0.004     (0)  
   FeSO4+          0.000e+00   0.000e+00   -85.388   -85.388    -0.000     (0)  
   Fe(SO4)2-       0.000e+00   0.000e+00  -139.718  -139.718    -0.000     (0)  
H(0)          3.705e+01
   H2              1.852e+01   1.852e+01     1.268     1.268     0.000     (0)  
O(0)          0.000e+00
   O2              0.000e+00   0.000e+00   -95.244   -95.244     0.000     (0)  
S(-2)         2.100e-11
   HS-             1.195e-11   1.195e-11   -10.923   -10.923    -0.000     (0)  
   H2S             8.666e-12   8.666e-12   -11.062   -11.062     0.000     (0)  
   S5-2            3.664e-14   3.659e-14   -13.436   -13.437    -0.001     (0)  
   S4-2            2.138e-14   2.135e-14   -13.670   -13.671    -0.001     (0)  
   S6-2            1.897e-14   1.894e-14   -13.722   -13.723    -0.001     (0)  
   S-2             1.742e-17   1.739e-17   -16.759   -16.760    -0.001     (0)  
   S3-2            7.533e-18   7.523e-18   -17.123   -17.124    -0.001     (0)  
   S2-2            4.276e-19   4.270e-19   -18.369   -18.370    -0.001     (0)  
   Fe(HS)2         8.870e-25   8.870e-25   -24.052   -24.052     0.000     (0)  
   Fe(HS)3-        1.154e-33   1.154e-33   -32.938   -32.938    -0.000     (0)  
S(6)          0.000e+00
   SO4-2           0.000e+00   0.000e+00   -55.829   -55.830    -0.001     (0)  
   HSO4-           0.000e+00   0.000e+00   -60.924   -60.924    -0.000     (0)  
   FeSO4           0.000e+00   0.000e+00   -64.736   -64.736     0.000     (0)  
   FeSO4+          0.000e+00   0.000e+00   -85.388   -85.388    -0.000     (0)  
   Fe(SO4)2-       0.000e+00   0.000e+00  -139.718  -139.718    -0.000     (0)  

------------------------------Saturation indices-------------------------------

  Phase               SI** log IAP   log K(298 K,   1 atm)

  Fe2(SO4)3      -238.03   -234.45    3.58  Fe2(SO4)3
  Fe3(OH)8        -43.00    -22.78   20.22  Fe3(OH)8
  Ferrihydrite    -17.62    -12.73    4.89  Fe(OH)3
  FeS(ppt)        -11.08    -15.00   -3.92  FeS
  Goethite        -13.06    -12.56    0.50  FeOOH
  Greigite        -52.42    -67.42  -14.99  Fe3S4
  Hematite        -20.96    -24.96   -4.01  Fe2O3
  Jarosite-H     -165.74   -177.84  -12.10  (H3O)Fe3(SO4)2(OH)6
  Lepidocrocite   -13.93    -12.56    1.37  FeOOH
  Mackinawite     -12.86    -15.00   -2.14  FeS
  Maghemite       -31.35    -24.96    6.39  Fe2O3
  Magnetite       -25.86    -22.12    3.74  Fe3O4
  Melanterite     -65.67    -68.14   -2.47  FeSO4:7H2O
  O2(g)           -92.28     -9.16   83.12  O2
  pe_fix            9.29      9.29    0.00  e-
  pH_fix           -7.08     -7.08    0.00  H+
  Pyrite          -20.64    -37.42  -16.78  FeS2
  Pyrrhotite      -11.82     11.07   22.89  FeS
  Sulfur          -20.31    -35.34  -15.03  S

**For a gas, SI = log10(fugacity). Fugacity = pressure * phi / 1 atm.
  For ideal gases, phi = 1.

Reaction step 8.

Using solution 1.	PURE WATER
Using pure phase assemblage 1.	
Using reaction 1.	

Reaction 1.	

	  1.000e-12 moles of the following reaction have been added:

	                 Relative
	Reactant            moles

	Fe1S3                1.00000

	                 Relative
	Element             moles
	Fe                   1.00000
	S                    3.00000

-------------------------------Phase assemblage--------------------------------

                                                      Moles in assemblage
Phase               SI  log IAP  log K(T, P)   Initial       Final       Delta

Greigite          6.47     0.00     -6.47    0.000e+00           0   0.000e+00
Mackinawite     -12.75   -14.88     -2.14    0.000e+00           0   0.000e+00
Pyrite           10.37     0.00    -10.37    0.000e+00           0   0.000e+00
Pyrrhotite        8.55    33.55     25.00    0.000e+00           0   0.000e+00

-----------------------------Solution composition------------------------------

	Elements           Molality       Moles

	Fe                8.000e-12   8.000e-12
	S                 2.400e-11   2.400e-11

----------------------------Description of solution----------------------------

                                       pH  =   7.081      Charge balance
                                       pe  =  -9.290      Adjusted to redox equilibrium
                        Activity of water  =   0.685
                 Ionic strength (mol/kgw)  =   8.301e-08
                       Mass of water (kg)  =   1.000e+00
                 Total alkalinity (eq/kg)  =   1.600e-11
                         Temperature (°C)  =  25.00
                  Electrical balance (eq)  =  -3.867e-16
 Percent error, 100*(Cat-|An|)/(Cat+|An|)  =  -0.00
                               Iterations  =   3
                                  Total H  = 1.480613e+02
                                  Total O  = 5.550622e+01

----------------------------Distribution of species----------------------------

                                               Log       Log       Log    mole V
   Species          Molality    Activity  Molality  Activity     Gamma    cm³/mol

   OH-             8.299e-08   8.296e-08    -7.081    -7.081    -0.000     (0)  
   H+              8.299e-08   8.296e-08    -7.081    -7.081    -0.000      0.00
   H2O             5.551e+01   6.851e-01     1.744    -0.164     0.000     18.07
Fe(2)         8.000e-12
   Fe+2            7.979e-12   7.968e-12   -11.098   -11.099    -0.001     (0)  
   FeOH+           2.082e-14   2.081e-14   -13.682   -13.682    -0.000     (0)  
   Fe(OH)2         1.463e-18   1.463e-18   -17.835   -17.835     0.000     (0)  
   Fe(OH)3-        4.489e-22   4.487e-22   -21.348   -21.348    -0.000     (0)  
   Fe(HS)2         1.324e-24   1.324e-24   -23.878   -23.878     0.000     (0)  
   Fe(HS)3-        1.969e-33   1.969e-33   -32.706   -32.706    -0.000     (0)  
   FeSO4           0.000e+00   0.000e+00   -64.620   -64.620     0.000     (0)  
Fe(3)         6.120e-26
   Fe(OH)2+        5.537e-26   5.535e-26   -25.257   -25.257    -0.000     (0)  
   Fe(OH)3         5.370e-27   5.370e-27   -26.270   -26.270     0.000     (0)  
   Fe(OH)4-        4.436e-28   4.435e-28   -27.353   -27.353    -0.000     (0)  
   FeOH+2          2.027e-29   2.024e-29   -28.693   -28.694    -0.001     (0)  
   Fe+3            3.808e-34   3.796e-34   -33.419   -33.421    -0.001     (0)  
   Fe2(OH)2+4      0.000e+00   0.000e+00   -55.955   -55.958    -0.002     (0)  
   Fe3(OH)4+5      0.000e+00   0.000e+00   -78.891   -78.894    -0.004     (0)  
   FeSO4+          0.000e+00   0.000e+00   -85.272   -85.272    -0.000     (0)  
   Fe(SO4)2-       0.000e+00   0.000e+00  -139.544  -139.544    -0.000     (0)  
H(0)          3.705e+01
   H2              1.852e+01   1.852e+01     1.268     1.268     0.000     (0)  
O(0)          0.000e+00
   O2              0.000e+00   0.000e+00   -95.244   -95.244     0.000     (0)  
S(-2)         2.400e-11
   HS-             1.366e-11   1.365e-11   -10.865   -10.865    -0.000     (0)  
   H2S             9.904e-12   9.904e-12   -11.004   -11.004     0.000     (0)  
   S5-2            4.188e-14   4.182e-14   -13.378   -13.379    -0.001     (0)  
   S4-2            2.443e-14   2.440e-14   -13.612   -13.613    -0.001     (0)  
   S6-2            2.168e-14   2.165e-14   -13.664   -13.665    -0.001     (0)  
   S-2             1.991e-17   1.988e-17   -16.701   -16.702    -0.001     (0)  
   S3-2            8.610e-18   8.598e-18   -17.065   -17.066    -0.001     (0)  
   S2-2            4.886e-19   4.880e-19   -18.311   -18.312    -0.001     (0)  
   Fe(HS)2         1.324e-24   1.324e-24   -23.878   -23.878     0.000     (0)  
   Fe(HS)3-        1.969e-33   1.969e-33   -32.706   -32.706    -0.000     (0)  
S(6)          0.000e+00
   SO4-2           0.000e+00   0.000e+00   -55.771   -55.772    -0.001     (0)  
   HSO4-           0.000e+00   0.000e+00   -60.866   -60.866    -0.000     (0)  
   FeSO4           0.000e+00   0.000e+00   -64.620   -64.620     0.000     (0)  
   FeSO4+          0.000e+00   0.000e+00   -85.272   -85.272    -0.000     (0)  
   Fe(SO4)2-       0.000e+00   0.000e+00  -139.544  -139.544    -0.000     (0)  

------------------------------Saturation indices-------------------------------

  Phase               SI** log IAP   log K(298 K,   1 atm)

  Fe2(SO4)3      -237.74   -234.16    3.58  Fe2(SO4)3
  Fe3(OH)8        -42.83    -22.60   20.22  Fe3(OH)8
  Ferrihydrite    -17.56    -12.67    4.89  Fe(OH)3
  FeS(ppt)        -10.97    -14.88   -3.92  FeS
  Goethite        -13.01    -12.51    0.50  FeOOH
  Greigite        -52.02    -67.01  -14.99  Fe3S4
  Hematite        -20.84    -24.85   -4.01  Fe2O3
  Jarosite-H     -165.45   -177.55  -12.10  (H3O)Fe3(SO4)2(OH)6
  Lepidocrocite   -13.88    -12.51    1.37  FeOOH
  Mackinawite     -12.75    -14.88   -2.14  FeS
  Maghemite       -31.23    -24.85    6.39  Fe2O3
  Magnetite       -25.68    -21.95    3.74  Fe3O4
  Melanterite     -65.55    -68.02   -2.47  FeSO4:7H2O
  O2(g)           -92.28     -9.16   83.12  O2
  pe_fix            9.29      9.29    0.00  e-
  pH_fix           -7.08     -7.08    0.00  H+
  Pyrite          -20.47    -37.25  -16.78  FeS2
  Pyrrhotite      -11.71     11.18   22.89  FeS
  Sulfur          -20.26    -35.28  -15.03  S

**For a gas, SI = log10(fugacity). Fugacity = pressure * phi / 1 atm.
  For ideal gases, phi = 1.

Reaction step 9.

Using solution 1.	PURE WATER
Using pure phase assemblage 1.	
Using reaction 1.	

Reaction 1.	

	  1.000e-12 moles of the following reaction have been added:

	                 Relative
	Reactant            moles

	Fe1S3                1.00000

	                 Relative
	Element             moles
	Fe                   1.00000
	S                    3.00000

-------------------------------Phase assemblage--------------------------------

                                                      Moles in assemblage
Phase               SI  log IAP  log K(T, P)   Initial       Final       Delta

Greigite          6.47     0.00     -6.47    0.000e+00           0   0.000e+00
Mackinawite     -12.64   -14.78     -2.14    0.000e+00           0   0.000e+00
Pyrite           10.37     0.00    -10.37    0.000e+00           0   0.000e+00
Pyrrhotite        8.60    33.60     25.00    0.000e+00           0   0.000e+00

-----------------------------Solution composition------------------------------

	Elements           Molality       Moles

	Fe                9.000e-12   9.000e-12
	S                 2.700e-11   2.700e-11

----------------------------Description of solution----------------------------

                                       pH  =   7.081      Charge balance
                                       pe  =  -9.290      Adjusted to redox equilibrium
                        Activity of water  =   0.685
                 Ionic strength (mol/kgw)  =   8.301e-08
                       Mass of water (kg)  =   1.000e+00
                 Total alkalinity (eq/kg)  =   1.800e-11
                         Temperature (°C)  =  25.00
                  Electrical balance (eq)  =  -3.867e-16
 Percent error, 100*(Cat-|An|)/(Cat+|An|)  =  -0.00
                               Iterations  =   3
                                  Total H  = 1.480613e+02
                                  Total O  = 5.550622e+01

----------------------------Distribution of species----------------------------

                                               Log       Log       Log    mole V
   Species          Molality    Activity  Molality  Activity     Gamma    cm³/mol

   OH-             8.299e-08   8.296e-08    -7.081    -7.081    -0.000     (0)  
   H+              8.299e-08   8.296e-08    -7.081    -7.081    -0.000      0.00
   H2O             5.551e+01   6.851e-01     1.744    -0.164     0.000     18.07
Fe(2)         9.000e-12
   Fe+2            8.977e-12   8.964e-12   -11.047   -11.047    -0.001     (0)  
   FeOH+           2.342e-14   2.341e-14   -13.630   -13.631    -0.000     (0)  
   Fe(OH)2         1.645e-18   1.645e-18   -17.784   -17.784     0.000     (0)  
   Fe(OH)3-        5.050e-22   5.048e-22   -21.297   -21.297    -0.000     (0)  
   Fe(HS)2         1.885e-24   1.885e-24   -23.725   -23.725     0.000     (0)  
   Fe(HS)3-        3.154e-33   3.153e-33   -32.501   -32.501    -0.000     (0)  
   FeSO4           0.000e+00   0.000e+00   -64.518   -64.518     0.000     (0)  
Fe(3)         6.885e-26
   Fe(OH)2+        6.229e-26   6.227e-26   -25.206   -25.206    -0.000     (0)  
   Fe(OH)3         6.042e-27   6.042e-27   -26.219   -26.219     0.000     (0)  
   Fe(OH)4-        4.991e-28   4.989e-28   -27.302   -27.302    -0.000     (0)  
   FeOH+2          2.280e-29   2.277e-29   -28.642   -28.643    -0.001     (0)  
   Fe+3            4.284e-34   4.271e-34   -33.368   -33.369    -0.001     (0)  
   Fe2(OH)2+4      0.000e+00   0.000e+00   -55.853   -55.855    -0.002     (0)  
   Fe3(OH)4+5      0.000e+00   0.000e+00   -78.737   -78.741    -0.004     (0)  
   FeSO4+          0.000e+00   0.000e+00   -85.170   -85.170    -0.000     (0)  
   Fe(SO4)2-       0.000e+00   0.000e+00  -139.390  -139.390    -0.000     (0)  
H(0)          3.705e+01
   H2              1.852e+01   1.852e+01     1.268     1.268     0.000     (0)  
O(0)          0.000e+00
   O2              0.000e+00   0.000e+00   -95.244   -95.244     0.000     (0)  
S(-2)         2.700e-11
   HS-             1.537e-11   1.536e-11   -10.813   -10.814    -0.000     (0)  
   H2S             1.114e-11   1.114e-11   -10.953   -10.953     0.000     (0)  
   S5-2            4.711e-14   4.705e-14   -13.327   -13.327    -0.001     (0)  
   S4-2            2.749e-14   2.745e-14   -13.561   -13.561    -0.001     (0)  
   S6-2            2.439e-14   2.435e-14   -13.613   -13.613    -0.001     (0)  
   S-2             2.239e-17   2.236e-17   -16.650   -16.650    -0.001     (0)  
   S3-2            9.686e-18   9.673e-18   -17.014   -17.014    -0.001     (0)  
   S2-2            5.497e-19   5.490e-19   -18.260   -18.260    -0.001     (0)  
   Fe(HS)2         1.885e-24   1.885e-24   -23.725   -23.725     0.000     (0)  
   Fe(HS)3-        3.154e-33   3.153e-33   -32.501   -32.501    -0.000     (0)  
S(6)          0.000e+00
   SO4-2           0.000e+00   0.000e+00   -55.720   -55.720    -0.001     (0)  
   HSO4-           0.000e+00   0.000e+00   -60.814   -60.815    -0.000     (0)  
   FeSO4           0.000e+00   0.000e+00   -64.518   -64.518     0.000     (0)  
   FeSO4+          0.000e+00   0.000e+00   -85.170   -85.170    -0.000     (0)  
   Fe(SO4)2-       0.000e+00   0.000e+00  -139.390  -139.390    -0.000     (0)  

------------------------------Saturation indices-------------------------------

  Phase               SI** log IAP   log K(298 K,   1 atm)

  Fe2(SO4)3      -237.48   -233.90    3.58  Fe2(SO4)3
  Fe3(OH)8        -42.67    -22.45   20.22  Fe3(OH)8
  Ferrihydrite    -17.51    -12.62    4.89  Fe(OH)3
  FeS(ppt)        -10.86    -14.78   -3.92  FeS
  Goethite        -12.95    -12.45    0.50  FeOOH
  Greigite        -51.66    -66.65  -14.99  Fe3S4
  Hematite        -20.74    -24.74   -4.01  Fe2O3
  Jarosite-H     -165.19   -177.29  -12.10  (H3O)Fe3(SO4)2(OH)6
  Lepidocrocite   -13.83    -12.45    1.37  FeOOH
  Mackinawite     -12.64    -14.78   -2.14  FeS
  Maghemite       -31.13    -24.74    6.39  Fe2O3
  Magnetite       -25.53    -21.79    3.74  Fe3O4
  Melanterite     -65.45    -67.92   -2.47  FeSO4:7H2O
  O2(g)           -92.28     -9.16   83.12  O2
  pe_fix            9.29      9.29    0.00  e-
  pH_fix           -7.08     -7.08    0.00  H+
  Pyrite          -20.32    -37.09  -16.78  FeS2
  Pyrrhotite      -11.60     11.28   22.89  FeS
  Sulfur          -20.20    -35.23  -15.03  S

**For a gas, SI = log10(fugacity). Fugacity = pressure * phi / 1 atm.
  For ideal gases, phi = 1.

Reaction step 10.

Using solution 1.	PURE WATER
Using pure phase assemblage 1.	
Using reaction 1.	

Reaction 1.	

	  1.000e-12 moles of the following reaction have been added:

	                 Relative
	Reactant            moles

	Fe1S3                1.00000

	                 Relative
	Element             moles
	Fe                   1.00000
	S                    3.00000

-------------------------------Phase assemblage--------------------------------

                                                      Moles in assemblage
Phase               SI  log IAP  log K(T, P)   Initial       Final       Delta

Greigite          6.47     0.00     -6.47    0.000e+00           0   0.000e+00
Mackinawite     -12.55   -14.69     -2.14    0.000e+00           0   0.000e+00
Pyrite           10.37     0.00    -10.37    0.000e+00           0   0.000e+00
Pyrrhotite        8.65    33.64     25.00    0.000e+00           0   0.000e+00

-----------------------------Solution composition------------------------------

	Elements           Molality       Moles

	Fe                1.000e-11   1.000e-11
	S                 3.000e-11   3.000e-11

----------------------------Description of solution----------------------------

                                       pH  =   7.081      Charge balance
                                       pe  =  -9.290      Adjusted to redox equilibrium
                        Activity of water  =   0.685
                 Ionic strength (mol/kgw)  =   8.302e-08
                       Mass of water (kg)  =   1.000e+00
                 Total alkalinity (eq/kg)  =   2.000e-11
                         Temperature (°C)  =  25.00
                  Electrical balance (eq)  =  -3.867e-16
 Percent error, 100*(Cat-|An|)/(Cat+|An|)  =  -0.00
                               Iterations  =   3
                                  Total H  = 1.480613e+02
                                  Total O  = 5.550622e+01

----------------------------Distribution of species----------------------------

                                               Log       Log       Log    mole V
   Species          Molality    Activity  Molality  Activity     Gamma    cm³/mol

   OH-             8.299e-08   8.296e-08    -7.081    -7.081    -0.000     (0)  
   H+              8.299e-08   8.296e-08    -7.081    -7.081    -0.000      0.00
   H2O             5.551e+01   6.851e-01     1.744    -0.164     0.000     18.07
Fe(2)         1.000e-11
   Fe+2            9.974e-12   9.960e-12   -11.001   -11.002    -0.001     (0)  
   FeOH+           2.602e-14   2.601e-14   -13.585   -13.585    -0.000     (0)  
   Fe(OH)2         1.828e-18   1.828e-18   -17.738   -17.738     0.000     (0)  
   Fe(OH)3-        5.611e-22   5.609e-22   -21.251   -21.251    -0.000     (0)  
   Fe(HS)2         2.586e-24   2.586e-24   -23.587   -23.587     0.000     (0)  
   Fe(HS)3-        4.808e-33   4.806e-33   -32.318   -32.318    -0.000     (0)  
   FeSO4           0.000e+00   0.000e+00   -64.426   -64.426     0.000     (0)  
Fe(3)         7.650e-26
   Fe(OH)2+        6.921e-26   6.919e-26   -25.160   -25.160    -0.000     (0)  
   Fe(OH)3         6.713e-27   6.713e-27   -26.173   -26.173     0.000     (0)  
   Fe(OH)4-        5.545e-28   5.544e-28   -27.256   -27.256    -0.000     (0)  
   FeOH+2          2.534e-29   2.530e-29   -28.596   -28.597    -0.001     (0)  
   Fe+3            4.760e-34   4.745e-34   -33.322   -33.324    -0.001     (0)  
   Fe2(OH)2+4      0.000e+00   0.000e+00   -55.761   -55.764    -0.002     (0)  
   Fe3(OH)4+5      0.000e+00   0.000e+00   -78.600   -78.604    -0.004     (0)  
   FeSO4+          0.000e+00   0.000e+00   -85.078   -85.078    -0.000     (0)  
   Fe(SO4)2-       0.000e+00   0.000e+00  -139.253  -139.253    -0.000     (0)  
H(0)          3.705e+01
   H2              1.852e+01   1.852e+01     1.268     1.268     0.000     (0)  
O(0)          0.000e+00
   O2              0.000e+00   0.000e+00   -95.244   -95.244     0.000     (0)  
S(-2)         3.000e-11
   HS-             1.707e-11   1.707e-11   -10.768   -10.768    -0.000     (0)  
   H2S             1.238e-11   1.238e-11   -10.907   -10.907     0.000     (0)  
   S5-2            5.235e-14   5.228e-14   -13.281   -13.282    -0.001     (0)  
   S4-2            3.054e-14   3.050e-14   -13.515   -13.516    -0.001     (0)  
   S6-2            2.710e-14   2.706e-14   -13.567   -13.568    -0.001     (0)  
   S-2             2.488e-17   2.485e-17   -16.604   -16.605    -0.001     (0)  
   S3-2            1.076e-17   1.075e-17   -16.968   -16.969    -0.001     (0)  
   S2-2            6.108e-19   6.100e-19   -18.214   -18.215    -0.001     (0)  
   Fe(HS)2         2.586e-24   2.586e-24   -23.587   -23.587     0.000     (0)  
   Fe(HS)3-        4.808e-33   4.806e-33   -32.318   -32.318    -0.000     (0)  
S(6)          0.000e+00
   SO4-2           0.000e+00   0.000e+00   -55.674   -55.675    -0.001     (0)  
   HSO4-           0.000e+00   0.000e+00   -60.769   -60.769    -0.000     (0)  
   FeSO4           0.000e+00   0.000e+00   -64.426   -64.426     0.000     (0)  
   FeSO4+          0.000e+00   0.000e+00   -85.078   -85.078    -0.000     (0)  
   Fe(SO4)2-       0.000e+00   0.000e+00  -139.253  -139.253    -0.000     (0)  

------------------------------Saturation indices-------------------------------

  Phase               SI** log IAP   log K(298 K,   1 atm)

  Fe2(SO4)3      -237.25   -233.67    3.58  Fe2(SO4)3
  Fe3(OH)8        -42.54    -22.31   20.22  Fe3(OH)8
  Ferrihydrite    -17.46    -12.57    4.89  Fe(OH)3
  FeS(ppt)        -10.77    -14.69   -3.92  FeS
  Goethite        -12.91    -12.41    0.50  FeOOH
  Greigite        -51.34    -66.33  -14.99  Fe3S4
  Hematite        -20.65    -24.65   -4.01  Fe2O3
  Jarosite-H     -164.96   -177.06  -12.10  (H3O)Fe3(SO4)2(OH)6
  Lepidocrocite   -13.78    -12.41    1.37  FeOOH
  Mackinawite     -12.55    -14.69   -2.14  FeS
  Maghemite       -31.04    -24.65    6.39  Fe2O3
  Magnetite       -25.39    -21.66    3.74  Fe3O4
  Melanterite     -65.36    -67.83   -2.47  FeSO4:7H2O
  O2(g)           -92.28     -9.16   83.12  O2
  pe_fix            9.29      9.29    0.00  e-
  pH_fix           -7.08     -7.08    0.00  H+
  Pyrite          -20.18    -36.96  -16.78  FeS2
  Pyrrhotite      -11.51     11.38   22.89  FeS
  Sulfur          -20.16    -35.18  -15.03  S

**For a gas, SI = log10(fugacity). Fugacity = pressure * phi / 1 atm.
  For ideal gases, phi = 1.

Reaction step 11.

Using solution 1.	PURE WATER
Using pure phase assemblage 1.	
Using reaction 1.	

Reaction 1.	

	  1.000e-11 moles of the following reaction have been added:

	                 Relative
	Reactant            moles

	Fe1S3                1.00000

	                 Relative
	Element             moles
	Fe                   1.00000
	S                    3.00000

-------------------------------Phase assemblage--------------------------------

                                                      Moles in assemblage
Phase               SI  log IAP  log K(T, P)   Initial       Final       Delta

Greigite          6.47     0.00     -6.47    0.000e+00           0   0.000e+00
Mackinawite     -11.95   -14.09     -2.14    0.000e+00           0   0.000e+00
Pyrite           10.37     0.00    -10.37    0.000e+00           0   0.000e+00
Pyrrhotite        8.95    33.94     25.00    0.000e+00           0   0.000e+00

-----------------------------Solution composition------------------------------

	Elements           Molality       Moles

	Fe                2.000e-11   2.000e-11
	S                 6.000e-11   6.000e-11

----------------------------Description of solution----------------------------

                                       pH  =   7.081      Charge balance
                                       pe  =  -9.290      Adjusted to redox equilibrium
                        Activity of water  =   0.685
                 Ionic strength (mol/kgw)  =   8.305e-08
                       Mass of water (kg)  =   1.000e+00
                 Total alkalinity (eq/kg)  =   4.000e-11
                         Temperature (°C)  =  25.00
                  Electrical balance (eq)  =  -3.867e-16
 Percent error, 100*(Cat-|An|)/(Cat+|An|)  =  -0.00
                               Iterations  =   5
                                  Total H  = 1.480613e+02
                                  Total O  = 5.550622e+01

----------------------------Distribution of species----------------------------

                                               Log       Log       Log    mole V
   Species          Molality    Activity  Molality  Activity     Gamma    cm³/mol

   OH-             8.299e-08   8.296e-08    -7.081    -7.081    -0.000     (0)  
   H+              8.299e-08   8.296e-08    -7.081    -7.081    -0.000      0.00
   H2O             5.551e+01   6.851e-01     1.744    -0.164     0.000     18.07
Fe(2)         2.000e-11
   Fe+2            1.995e-11   1.992e-11   -10.700   -10.701    -0.001     (0)  
   FeOH+           5.204e-14   5.202e-14   -13.284   -13.284    -0.000     (0)  
   Fe(OH)2         3.657e-18   3.657e-18   -17.437   -17.437     0.000     (0)  
   Fe(OH)3-        1.122e-21   1.122e-21   -20.950   -20.950    -0.000     (0)  
   Fe(HS)2         2.069e-23   2.069e-23   -22.684   -22.684     0.000     (0)  
   Fe(HS)3-        7.693e-32   7.690e-32   -31.114   -31.114    -0.000     (0)  
   FeSO4           0.000e+00   0.000e+00   -63.824   -63.824     0.000     (0)  
Fe(3)         1.530e-25
   Fe(OH)2+        1.384e-25   1.384e-25   -24.859   -24.859    -0.000     (0)  
   Fe(OH)3         1.343e-26   1.343e-26   -25.872   -25.872     0.000     (0)  
   Fe(OH)4-        1.109e-27   1.109e-27   -26.955   -26.955    -0.000     (0)  
   FeOH+2          5.067e-29   5.060e-29   -28.295   -28.296    -0.001     (0)  
   Fe+3            9.520e-34   9.491e-34   -33.021   -33.023    -0.001     (0)  
   Fe2(OH)2+4      0.000e+00   0.000e+00   -55.159   -55.162    -0.002     (0)  
   Fe3(OH)4+5      0.000e+00   0.000e+00   -77.697   -77.701    -0.004     (0)  
   FeSO4+          0.000e+00   0.000e+00   -84.476   -84.476    -0.000     (0)  
   Fe(SO4)2-       0.000e+00   0.000e+00  -138.350  -138.350    -0.000     (0)  
H(0)          3.705e+01
   H2              1.852e+01   1.852e+01     1.268     1.268     0.000     (0)  
O(0)          0.000e+00
   O2              0.000e+00   0.000e+00   -95.244   -95.244     0.000     (0)  
S(-2)         6.000e-11
   HS-             3.415e-11   3.414e-11   -10.467   -10.467    -0.000     (0)  
   H2S             2.476e-11   2.476e-11   -10.606   -10.606     0.000     (0)  
   S5-2            1.047e-13   1.046e-13   -12.980   -12.981    -0.001     (0)  
   S4-2            6.109e-14   6.100e-14   -13.214   -13.215    -0.001     (0)  
   S6-2            5.419e-14   5.412e-14   -13.266   -13.267    -0.001     (0)  
   S-2             4.977e-17   4.970e-17   -16.303   -16.304    -0.001     (0)  
   S3-2            2.152e-17   2.150e-17   -16.667   -16.668    -0.001     (0)  
   S2-2            1.222e-18   1.220e-18   -17.913   -17.914    -0.001     (0)  
   Fe(HS)2         2.069e-23   2.069e-23   -22.684   -22.684     0.000     (0)  
   Fe(HS)3-        7.693e-32   7.690e-32   -31.114   -31.114    -0.000     (0)  
S(6)          0.000e+00
   SO4-2           0.000e+00   0.000e+00   -55.373   -55.374    -0.001     (0)  
   HSO4-           0.000e+00   0.000e+00   -60.468   -60.468    -0.000     (0)  
   FeSO4           0.000e+00   0.000e+00   -63.824   -63.824     0.000     (0)  
   FeSO4+          0.000e+00   0.000e+00   -84.476   -84.476    -0.000     (0)  
   Fe(SO4)2-       0.000e+00   0.000e+00  -138.350  -138.350    -0.000     (0)  

------------------------------Saturation indices-------------------------------

  Phase               SI** log IAP   log K(298 K,   1 atm)

  Fe2(SO4)3      -235.75   -232.17    3.58  Fe2(SO4)3
  Fe3(OH)8        -41.63    -21.41   20.22  Fe3(OH)8
  Ferrihydrite    -17.16    -12.27    4.89  Fe(OH)3
  FeS(ppt)        -10.17    -14.09   -3.92  FeS
  Goethite        -12.61    -12.11    0.50  FeOOH
  Greigite        -49.23    -64.22  -14.99  Fe3S4
  Hematite        -20.04    -24.05   -4.01  Fe2O3
  Jarosite-H     -163.46   -175.56  -12.10  (H3O)Fe3(SO4)2(OH)6
  Lepidocrocite   -13.48    -12.11    1.37  FeOOH
  Mackinawite     -11.95    -14.09   -2.14  FeS
  Maghemite       -30.44    -24.05    6.39  Fe2O3
  Magnetite       -24.49    -20.75    3.74  Fe3O4
  Melanterite     -64.75    -67.22   -2.47  FeSO4:7H2O
  O2(g)           -92.28     -9.16   83.12  O2
  pe_fix            9.29      9.29    0.00  e-
  pH_fix           -7.08     -7.08    0.00  H+
  Pyrite          -19.28    -36.05  -16.78  FeS2
  Pyrrhotite      -10.91     11.98   22.89  FeS
  Sulfur          -19.86    -34.88  -15.03  S

**For a gas, SI = log10(fugacity). Fugacity = pressure * phi / 1 atm.
  For ideal gases, phi = 1.

Reaction step 12.

Using solution 1.	PURE WATER
Using pure phase assemblage 1.	
Using reaction 1.	

Reaction 1.	

	  1.000e-11 moles of the following reaction have been added:

	                 Relative
	Reactant            moles

	Fe1S3                1.00000

	                 Relative
	Element             moles
	Fe                   1.00000
	S                    3.00000

-------------------------------Phase assemblage--------------------------------

                                                      Moles in assemblage
Phase               SI  log IAP  log K(T, P)   Initial       Final       Delta

Greigite          6.47     0.00     -6.47    0.000e+00           0   0.000e+00
Mackinawite     -11.60   -13.73     -2.14    0.000e+00           0   0.000e+00
Pyrite           10.37     0.00    -10.37    0.000e+00           0   0.000e+00
Pyrrhotite        9.12    34.12     25.00    0.000e+00           0   0.000e+00

-----------------------------Solution composition------------------------------

	Elements           Molality       Moles

	Fe                3.000e-11   3.000e-11
	S                 9.000e-11   9.000e-11

----------------------------Description of solution----------------------------

                                       pH  =   7.081      Charge balance
                                       pe  =  -9.290      Adjusted to redox equilibrium
                        Activity of water  =   0.685
[...]
  For ideal gases, phi = 1.

Reaction step 108.

Using solution 1.	PURE WATER
Using pure phase assemblage 1.	
Using reaction 1.	

Reaction 1.	

	  1.000e-02 moles of the following reaction have been added:

	                 Relative
	Reactant            moles

	Fe3S1                1.00000

	                 Relative
	Element             moles
	Fe                   3.00000
	S                    1.00000

-------------------------------Phase assemblage--------------------------------

                                                      Moles in assemblage
Phase               SI  log IAP  log K(T, P)   Initial       Final       Delta

Greigite          6.47     0.00     -6.47    0.000e+00           0   0.000e+00
Mackinawite      -1.04    -3.18     -2.14    0.000e+00           0   0.000e+00
Pyrite           10.37     0.00    -10.37    0.000e+00           0   0.000e+00
Pyrrhotite       24.86    49.86     25.00    8.111e-02   9.111e-02   1.000e-02

-----------------------------Solution composition------------------------------

	Elements           Molality       Moles

	Fe                1.834e-01   1.822e-01
	S                 1.645e-09   1.634e-09

----------------------------Description of solution----------------------------

                                       pH  =  10.957      Charge balance
                                       pe  = -13.173      Adjusted to redox equilibrium
                        Activity of water  =   0.677
                 Ionic strength (mol/kgw)  =   8.842e-02
                       Mass of water (kg)  =   9.934e-01
                 Total alkalinity (eq/kg)  =   3.669e-01
                         Temperature (°C)  =  25.00
                  Electrical balance (eq)  =  -2.062e-11
 Percent error, 100*(Cat-|An|)/(Cat+|An|)  =  -0.00
                               Iterations  =   5
                                  Total H  = 1.480613e+02
                                  Total O  = 5.550622e+01

----------------------------Distribution of species----------------------------

                                               Log       Log       Log    mole V
   Species          Molality    Activity  Molality  Activity     Gamma    cm³/mol

   OH-             7.979e-04   6.151e-04    -3.098    -3.211    -0.113     (0)  
   H+              1.331e-11   1.105e-11   -10.876   -10.957    -0.081      0.00
   H2O             5.551e+01   6.768e-01     1.744    -0.170     0.000     18.07
Fe(2)         1.834e-01
   Fe(OH)3-        8.090e-02   6.398e-02    -1.092    -1.194    -0.102     (0)  
   FeOH+           6.824e-02   5.397e-02    -1.166    -1.268    -0.102     (0)  
   Fe(OH)2         2.756e-02   2.813e-02    -1.560    -1.551     0.009     (0)  
   Fe+2            6.725e-03   2.788e-03    -2.172    -2.555    -0.382     (0)  
   Fe(HS)2         1.696e-17   1.731e-17   -16.770   -16.762     0.009     (0)  
   Fe(HS)3-        6.314e-27   4.976e-27   -26.200   -26.303    -0.103     (0)  
   FeSO4           0.000e+00   0.000e+00   -53.009   -53.000     0.009     (0)  
Fe(3)         7.717e-08
   Fe(OH)4-        7.707e-08   6.132e-08    -7.113    -7.212    -0.099     (0)  
   Fe(OH)3         9.814e-11   1.002e-10   -10.008    -9.999     0.009     (0)  
   Fe(OH)2+        1.750e-13   1.392e-13   -12.757   -12.856    -0.099     (0)  
   FeOH+2          1.755e-20   6.868e-21   -19.756   -20.163    -0.408     (0)  
   Fe+3            9.253e-29   1.737e-29   -28.034   -28.760    -0.726     (0)  
   Fe2(OH)2+4      5.722e-38   1.270e-39   -37.242   -38.896    -1.654     (0)  
   Fe3(OH)4+5      0.000e+00   0.000e+00   -46.848   -49.433    -2.584     (0)  
   FeSO4+          0.000e+00   0.000e+00   -77.433   -77.535    -0.102     (0)  
   Fe(SO4)2-       0.000e+00   0.000e+00  -128.627  -128.730    -0.103     (0)  
H(0)          3.766e+01
   H2              1.883e+01   1.922e+01     1.275     1.284     0.009     (0)  
O(0)          0.000e+00
   O2              0.000e+00   0.000e+00   -95.295   -95.287     0.009     (0)  
S(-2)         1.645e-09
   S5-2            1.572e-10   6.068e-11    -9.803   -10.217    -0.413     (0)  
   S4-2            9.174e-11   3.540e-11   -10.037   -10.451    -0.413     (0)  
   S6-2            8.138e-11   3.141e-11   -10.089   -10.503    -0.413     (0)  
   HS-             3.424e-12   2.640e-12   -11.465   -11.578    -0.113     (0)  
   S-2             7.373e-14   2.884e-14   -13.132   -13.540    -0.408     (0)  
   S3-2            3.232e-14   1.248e-14   -13.490   -13.904    -0.413     (0)  
   S2-2            1.835e-15   7.080e-16   -14.736   -15.150    -0.413     (0)  
   H2S             2.500e-16   2.551e-16   -15.602   -15.593     0.009     (0)  
   Fe(HS)2         1.696e-17   1.731e-17   -16.770   -16.762     0.009     (0)  
   Fe(HS)3-        6.314e-27   4.976e-27   -26.200   -26.303    -0.103     (0)  
S(6)          0.000e+00
   SO4-2           0.000e+00   0.000e+00   -52.255   -52.695    -0.440     (0)  
   FeSO4           0.000e+00   0.000e+00   -53.009   -53.000     0.009     (0)  
   HSO4-           0.000e+00   0.000e+00   -61.559   -61.665    -0.105     (0)  
   FeSO4+          0.000e+00   0.000e+00   -77.433   -77.535    -0.102     (0)  
   Fe(SO4)2-       0.000e+00   0.000e+00  -128.627  -128.730    -0.103     (0)  

------------------------------Saturation indices-------------------------------

  Phase               SI** log IAP   log K(298 K,   1 atm)

  Fe2(SO4)3      -219.19   -215.61    3.58  Fe2(SO4)3
  Fe3(OH)8          6.00     26.22   20.22  Fe3(OH)8
  Ferrihydrite     -1.29      3.60    4.89  Fe(OH)3
  FeS(ppt)          0.74     -3.18   -3.92  FeS
  Goethite          3.27      3.77    0.50  FeOOH
  Greigite        -21.50    -36.50  -14.99  Fe3S4
  Hematite         11.72      7.71   -4.01  Fe2O3
  Jarosite-H     -125.97   -138.07  -12.10  (H3O)Fe3(SO4)2(OH)6
  Lepidocrocite     2.40      3.77    1.37  FeOOH
  Mackinawite      -1.04     -3.18   -2.14  FeS
  Maghemite         1.32      7.71    6.39  Fe2O3
  Magnetite        23.16     26.90    3.74  Fe3O4
  Melanterite     -53.97    -56.44   -2.47  FeSO4:7H2O
  O2(g)           -92.33     -9.21   83.12  O2
  pe_fix           13.17     13.17    0.00  e-
  pH_fix          -10.96    -10.96    0.00  H+
  Pyrite          -13.37    -30.15  -16.78  FeS2
  Pyrrhotite       -0.00     22.89   22.89  FeS
  Sulfur          -24.86    -39.89  -15.03  S

**For a gas, SI = log10(fugacity). Fugacity = pressure * phi / 1 atm.
  For ideal gases, phi = 1.

Reaction step 109.

Using solution 1.	PURE WATER
Using pure phase assemblage 1.	
Using reaction 1.	

Reaction 1.	

	  1.000e-02 moles of the following reaction have been added:

	                 Relative
	Reactant            moles

	Fe3S1                1.00000

	                 Relative
	Element             moles
	Fe                   3.00000
	S                    1.00000

-------------------------------Phase assemblage--------------------------------

                                                      Moles in assemblage
Phase               SI  log IAP  log K(T, P)   Initial       Final       Delta

Greigite          6.47     0.00     -6.47    0.000e+00           0   0.000e+00
Mackinawite      -1.04    -3.18     -2.14    0.000e+00           0   0.000e+00
Pyrite           10.37     0.00    -10.37    0.000e+00           0   0.000e+00
Pyrrhotite       24.91    49.90     25.00    9.111e-02   1.011e-01   1.000e-02

-----------------------------Solution composition------------------------------

	Elements           Molality       Moles

	Fe                2.037e-01   2.022e-01
	S                 1.547e-09   1.535e-09

----------------------------Description of solution----------------------------

                                       pH  =  10.958      Charge balance
                                       pe  = -13.176      Adjusted to redox equilibrium
                        Activity of water  =   0.676
                 Ionic strength (mol/kgw)  =   9.852e-02
                       Mass of water (kg)  =   9.927e-01
                 Total alkalinity (eq/kg)  =   4.074e-01
                         Temperature (°C)  =  25.00
                  Electrical balance (eq)  =  -2.062e-11
 Percent error, 100*(Cat-|An|)/(Cat+|An|)  =  -0.00
                               Iterations  =   6
                                  Total H  = 1.480613e+02
                                  Total O  = 5.550622e+01

----------------------------Distribution of species----------------------------

                                               Log       Log       Log    mole V
   Species          Molality    Activity  Molality  Activity     Gamma    cm³/mol

   OH-             8.081e-04   6.164e-04    -3.093    -3.210    -0.118     (0)  
   H+              1.334e-11   1.102e-11   -10.875   -10.958    -0.083      0.00
   H2O             5.551e+01   6.758e-01     1.744    -0.170     0.000     18.07
Fe(2)         2.037e-01
   Fe(OH)3-        9.010e-02   7.065e-02    -1.045    -1.151    -0.106     (0)  
   FeOH+           7.570e-02   5.935e-02    -1.121    -1.227    -0.106     (0)  
   Fe(OH)2         3.030e-02   3.099e-02    -1.519    -1.509     0.010     (0)  
   Fe+2            7.607e-03   3.059e-03    -2.119    -2.514    -0.396     (0)  
   Fe(HS)2         1.532e-17   1.567e-17   -16.815   -16.805     0.010     (0)  
   Fe(HS)3-        5.229e-27   4.090e-27   -26.282   -26.388    -0.107     (0)  
   FeSO4           0.000e+00   0.000e+00   -53.019   -53.009     0.010     (0)  
Fe(3)         8.562e-08
   Fe(OH)4-        8.551e-08   6.748e-08    -7.068    -7.171    -0.103     (0)  
   Fe(OH)3         1.075e-10   1.100e-10    -9.968    -9.959     0.010     (0)  
   Fe(OH)2+        1.934e-13   1.526e-13   -12.714   -12.816    -0.103     (0)  
   FeOH+2          1.987e-20   7.511e-21   -19.702   -20.124    -0.423     (0)  
   Fe+3            1.060e-28   1.896e-29   -27.975   -28.722    -0.747     (0)  
   Fe2(OH)2+4      7.757e-38   1.519e-39   -37.110   -38.819    -1.708     (0)  
   Fe3(OH)4+5      0.000e+00   0.000e+00   -46.646   -49.315    -2.669     (0)  
   FeSO4+          0.000e+00   0.000e+00   -77.441   -77.547    -0.106     (0)  
   Fe(SO4)2-       0.000e+00   0.000e+00  -128.685  -128.792    -0.107     (0)  
H(0)          3.773e+01
   H2              1.886e+01   1.930e+01     1.276     1.285     0.010     (0)  
O(0)          0.000e+00
   O2              0.000e+00   0.000e+00   -95.301   -95.291     0.010     (0)  
S(-2)         1.547e-09
   S5-2            1.478e-10   5.529e-11    -9.830   -10.257    -0.427     (0)  
   S4-2            8.625e-11   3.226e-11   -10.064   -10.491    -0.427     (0)  
   S6-2            7.652e-11   2.862e-11   -10.116   -10.543    -0.427     (0)  
   HS-             3.143e-12   2.397e-12   -11.503   -11.620    -0.118     (0)  
   S-2             6.953e-14   2.628e-14   -13.158   -13.580    -0.423     (0)  
   S3-2            3.039e-14   1.137e-14   -13.517   -13.944    -0.427     (0)  
   S2-2            1.725e-15   6.452e-16   -14.763   -15.190    -0.427     (0)  
   H2S             2.257e-16   2.309e-16   -15.646   -15.637     0.010     (0)  
   Fe(HS)2         1.532e-17   1.567e-17   -16.815   -16.805     0.010     (0)  
   Fe(HS)3-        5.229e-27   4.090e-27   -26.282   -26.388    -0.107     (0)  
S(6)          0.000e+00
   SO4-2           0.000e+00   0.000e+00   -52.288   -52.745    -0.457     (0)  
   FeSO4           0.000e+00   0.000e+00   -53.019   -53.009     0.010     (0)  
   HSO4-           0.000e+00   0.000e+00   -61.607   -61.716    -0.109     (0)  
   FeSO4+          0.000e+00   0.000e+00   -77.441   -77.547    -0.106     (0)  
   Fe(SO4)2-       0.000e+00   0.000e+00  -128.685  -128.792    -0.107     (0)  

------------------------------Saturation indices-------------------------------

  Phase               SI** log IAP   log K(298 K,   1 atm)

  Fe2(SO4)3      -219.26   -215.68    3.58  Fe2(SO4)3
  Fe3(OH)8          6.12     26.34   20.22  Fe3(OH)8
  Ferrihydrite     -1.25      3.64    4.89  Fe(OH)3
  FeS(ppt)          0.74     -3.18   -3.92  FeS
  Goethite          3.31      3.81    0.50  FeOOH
  Greigite        -21.55    -36.54  -14.99  Fe3S4
  Hematite         11.80      7.79   -4.01  Fe2O3
  Jarosite-H     -125.96   -138.06  -12.10  (H3O)Fe3(SO4)2(OH)6
  Lepidocrocite     2.44      3.81    1.37  FeOOH
  Mackinawite      -1.04     -3.18   -2.14  FeS
  Maghemite         1.41      7.79    6.39  Fe2O3
  Magnetite        23.29     27.02    3.74  Fe3O4
  Melanterite     -53.98    -56.45   -2.47  FeSO4:7H2O
  O2(g)           -92.33     -9.21   83.12  O2
  pe_fix           13.18     13.18    0.00  e-
  pH_fix          -10.96    -10.96    0.00  H+
  Pyrite          -13.41    -30.19  -16.78  FeS2
  Pyrrhotite        0.00     22.89   22.89  FeS
  Sulfur          -24.91    -39.93  -15.03  S

**For a gas, SI = log10(fugacity). Fugacity = pressure * phi / 1 atm.
  For ideal gases, phi = 1.

Reaction step 110.

Using solution 1.	PURE WATER
Using pure phase assemblage 1.	
Using reaction 1.	

Reaction 1.	

	  1.000e-02 moles of the following reaction have been added:

	                 Relative
	Reactant            moles

	Fe3S1                1.00000

	                 Relative
	Element             moles
	Fe                   3.00000
	S                    1.00000

-------------------------------Phase assemblage--------------------------------

                                                      Moles in assemblage
Phase               SI  log IAP  log K(T, P)   Initial       Final       Delta

Greigite          6.47     0.00     -6.47    0.000e+00           0   0.000e+00
Mackinawite      -1.04    -3.18     -2.14    0.000e+00           0   0.000e+00
Pyrite           10.37     0.00    -10.37    0.000e+00           0   0.000e+00
Pyrrhotite       24.95    49.94     25.00    1.011e-01   1.111e-01   1.000e-02

-----------------------------Solution composition------------------------------

	Elements           Molality       Moles

	Fe                2.240e-01   2.222e-01
	S                 1.462e-09   1.451e-09

----------------------------Description of solution----------------------------

                                       pH  =  10.959      Charge balance
                                       pe  = -13.178      Adjusted to redox equilibrium
                        Activity of water  =   0.675
                 Ionic strength (mol/kgw)  =   1.087e-01
                       Mass of water (kg)  =   9.920e-01
                 Total alkalinity (eq/kg)  =   4.480e-01
                         Temperature (°C)  =  25.00
                  Electrical balance (eq)  =  -2.036e-11
 Percent error, 100*(Cat-|An|)/(Cat+|An|)  =  -0.00
                               Iterations  =   5
                                  Total H  = 1.480613e+02
                                  Total O  = 5.550622e+01

----------------------------Distribution of species----------------------------

                                               Log       Log       Log    mole V
   Species          Molality    Activity  Molality  Activity     Gamma    cm³/mol

   OH-             8.177e-04   6.175e-04    -3.087    -3.209    -0.122     (0)  
   H+              1.336e-11   1.098e-11   -10.874   -10.959    -0.085      0.00
   H2O             5.551e+01   6.749e-01     1.744    -0.171     0.000     18.07
Fe(2)         2.240e-01
   Fe(OH)3-        9.935e-02   7.728e-02    -1.003    -1.112    -0.109     (0)  
   FeOH+           8.315e-02   6.468e-02    -1.080    -1.189    -0.109     (0)  
   Fe(OH)2         3.300e-02   3.384e-02    -1.481    -1.471     0.011     (0)  
   Fe+2            8.508e-03   3.328e-03    -2.070    -2.478    -0.408     (0)  
   Fe(HS)2         1.396e-17   1.431e-17   -16.855   -16.844     0.011     (0)  
   Fe(HS)3-        4.408e-27   3.423e-27   -26.356   -26.466    -0.110     (0)  
   FeSO4           0.000e+00   0.000e+00   -53.030   -53.019     0.011     (0)  
Fe(3)         9.404e-08
   Fe(OH)4-        9.393e-08   7.357e-08    -7.027    -7.133    -0.106     (0)  
   Fe(OH)3         1.167e-10   1.197e-10    -9.933    -9.922     0.011     (0)  
   Fe(OH)2+        2.116e-13   1.657e-13   -12.674   -12.781    -0.106     (0)  
   FeOH+2          2.224e-20   8.143e-21   -19.653   -20.089    -0.436     (0)  
   Fe+3            1.198e-28   2.052e-29   -27.922   -28.688    -0.766     (0)  
   Fe2(OH)2+4      1.020e-37   1.785e-39   -36.991   -38.748    -1.757     (0)  
   Fe3(OH)4+5      0.000e+00   0.000e+00   -46.464   -49.209    -2.746     (0)  
   FeSO4+          0.000e+00   0.000e+00   -77.450   -77.559    -0.109     (0)  
   Fe(SO4)2-       0.000e+00   0.000e+00  -128.740  -128.850    -0.110     (0)  
H(0)          3.780e+01
   H2              1.890e+01   1.938e+01     1.276     1.287     0.011     (0)  
O(0)          0.000e+00
   O2              0.000e+00   0.000e+00   -95.307   -95.296     0.011     (0)  
S(-2)         1.462e-09
   S5-2            1.398e-10   5.083e-11    -9.855   -10.294    -0.439     (0)  
   S4-2            8.155e-11   2.966e-11   -10.089   -10.528    -0.439     (0)  
   S6-2            7.235e-11   2.631e-11   -10.141   -10.580    -0.439     (0)  
   HS-             2.909e-12   2.197e-12   -11.536   -11.658    -0.122     (0)  
   S-2             6.599e-14   2.416e-14   -13.181   -13.617    -0.436     (0)  
   S3-2            2.874e-14   1.045e-14   -13.542   -13.981    -0.439     (0)  
   S2-2            1.631e-15   5.931e-16   -14.788   -15.227    -0.439     (0)  
   H2S             2.057e-16   2.109e-16   -15.687   -15.676     0.011     (0)  
   Fe(HS)2         1.396e-17   1.431e-17   -16.855   -16.844     0.011     (0)  
   Fe(HS)3-        4.408e-27   3.423e-27   -26.356   -26.466    -0.110     (0)  
S(6)          0.000e+00
   SO4-2           0.000e+00   0.000e+00   -52.317   -52.791    -0.474     (0)  
   FeSO4           0.000e+00   0.000e+00   -53.030   -53.019     0.011     (0)  
   HSO4-           0.000e+00   0.000e+00   -61.650   -61.763    -0.113     (0)  
   FeSO4+          0.000e+00   0.000e+00   -77.450   -77.559    -0.109     (0)  
   Fe(SO4)2-       0.000e+00   0.000e+00  -128.740  -128.850    -0.110     (0)  

------------------------------Saturation indices-------------------------------

  Phase               SI** log IAP   log K(298 K,   1 atm)

  Fe2(SO4)3      -219.33   -215.75    3.58  Fe2(SO4)3
  Fe3(OH)8          6.23     26.46   20.22  Fe3(OH)8
  Ferrihydrite     -1.21      3.68    4.89  Fe(OH)3
  FeS(ppt)          0.74     -3.18   -3.92  FeS
  Goethite          3.35      3.85    0.50  FeOOH
  Greigite        -21.59    -36.59  -14.99  Fe3S4
  Hematite         11.88      7.87   -4.01  Fe2O3
  Jarosite-H     -125.94   -138.04  -12.10  (H3O)Fe3(SO4)2(OH)6
  Lepidocrocite     2.48      3.85    1.37  FeOOH
  Mackinawite      -1.04     -3.18   -2.14  FeS
  Maghemite         1.48      7.87    6.39  Fe2O3
  Magnetite        23.40     27.14    3.74  Fe3O4
  Melanterite     -53.99    -56.46   -2.47  FeSO4:7H2O
  O2(g)           -92.34     -9.22   83.12  O2
  pe_fix           13.18     13.18    0.00  e-
  pH_fix          -10.96    -10.96    0.00  H+
  Pyrite          -13.46    -30.23  -16.78  FeS2
  Pyrrhotite       -0.00     22.89   22.89  FeS
  Sulfur          -24.95    -39.97  -15.03  S

**For a gas, SI = log10(fugacity). Fugacity = pressure * phi / 1 atm.
  For ideal gases, phi = 1.

------------------
End of simulation.
------------------

------------------------------------
Reading input data for simulation 5.
------------------------------------

-------------------------------
End of Run after 1.063 Seconds.
-------------------------------

