   Input file: C:\Users\jt2020\OneDrive - Imperial College London\Data\Thermodynamics\Thermodynamics\Phreeq\Reaction Progress\Changing temp\H2S\H2S fixed conditions Fe dominant unfix 100.pqi
  Output file: C:\Users\jt2020\OneDrive - Imperial College London\Data\Thermodynamics\Thermodynamics\Phreeq\Reaction Progress\Changing temp\H2S\H2S fixed conditions Fe dominant unfix 100.pqo
Database file: C:\Users\jt2020\OneDrive - Imperial College London\Data\Thermodynamics\Thermodynamics\Phreeq\Reaction Progress\All models with pyrrhotite\Database\llnlpyrrminteq.dat

------------------
Reading data base.
------------------

	SOLUTION_MASTER_SPECIES
	SOLUTION_SPECIES
	SOLUTION_SPECIES
	PHASES
	SURFACE_MASTER_SPECIES
	SURFACE_SPECIES
	END
------------------------------------
Reading input data for simulation 1.
------------------------------------

	DATABASE C:\Users\jt2020\OneDrive - Imperial College London\Data\Thermodynamics\Thermodynamics\Phreeq\Reaction Progress\All models with pyrrhotite\Database\llnlpyrrminteq.dat
	TITLE  H2S unbuffered conditions Fe dominated 250mV
	SOLUTION 1  PURE WATER
	            pH    6 charge
	          temp   100.0
	           pe     4.23       #-250 mV 
	PHASES
	       pH_fix
	                H + = H +
	                log_k = 0.0
	       pe_fix
	                e- = e-
	                log_k 0.0
	Mackinawite
	    FeS + 2H+ = Fe+2 + H2S
	    log_k     4.850
	    delta_h        -8.901 kcal
	Pyrrhotite
	    FeS + 2H+ = Fe+2 + H2S
	    log_k     3.74177
	    delta_h        -7.977 kcal
	Greigite
	    Fe3S4 + 8H+ = 2Fe+3 + Fe+2 + 4H2S
	    log_k     -13.17851821
	    delta_h        20.9195763 kcal
	Pyrite
	    FeS2 + 4H+ + Fe+2 = 2Fe+3 + 2H2S
	    log_k     -28.93469201
	    delta_h        20.7091683 kcal
	NaNO3
	    NaNO3 = Na+ + NO3-
	    log_K -20
	NaCl
	    NaCl = Cl- + Na+
	    log_k     -20
	END
-----
TITLE
-----

  H2S unbuffered conditions Fe dominated 250mV

-------------------------------------------
Beginning of initial solution calculations.
-------------------------------------------

Initial solution 1.	PURE WATER

-----------------------------Solution composition------------------------------

	Elements           Molality       Moles

	Pure water     

----------------------------Description of solution----------------------------

                                       pH  =   6.016      Charge balance
                                       pe  =   4.230    
                        Activity of water  =   1.000
                 Ionic strength (mol/kgw)  =   9.652e-07
                       Mass of water (kg)  =   1.000e+00
                 Total alkalinity (eq/kg)  =   5.929e-21
                         Temperature (°C)  = 100.00
                  Electrical balance (eq)  =  -5.929e-21
 Percent error, 100*(Cat-|An|)/(Cat+|An|)  =  -0.00
                               Iterations  =   3
                                  Total H  = 1.110124e+02
                                  Total O  = 5.550622e+01

----------------------------Distribution of species----------------------------

                                               Log       Log       Log    mole V
   Species          Molality    Activity  Molality  Activity     Gamma    cm³/mol

   OH-             9.652e-07   9.639e-07    -6.015    -6.016    -0.001     (0)  
   H+              9.652e-07   9.639e-07    -6.015    -6.016    -0.001      0.00
   H2O             5.551e+01   1.000e+00     1.744    -0.000     0.000     18.80
H(0)          2.511e-24
   H2              1.256e-24   1.256e-24   -23.901   -23.901     0.000     (0)  
O(0)          1.155e-25
   O2              5.777e-26   5.777e-26   -25.238   -25.238     0.000     (0)  

------------------------------Saturation indices-------------------------------

  Phase               SI** log IAP   log K(373 K,   1 atm)

  O2(g)           -22.42     40.98   63.40  O2
  pe_fix           -4.23     -4.23    0.00  e-
  pH_fix           -6.02     -6.02    0.00  H+

**For a gas, SI = log10(fugacity). Fugacity = pressure * phi / 1 atm.
  For ideal gases, phi = 1.

------------------
End of simulation.
------------------

------------------------------------
Reading input data for simulation 2.
------------------------------------

	INCREMENTAL_REACTIONS
	REACTION
	Fe3S1 1
	10*1e-12 10*1e-11 10*1e-10 10*1e-9 10*1e-8 10*1e-7 10*1e-6 10*1e-5 10*1e-4  10*1e-3  10*1e-2 mol
	USE solution 1
	EQUILIBRIUM_PHASES 1
	        Mackinawite     0.0     0.0
	        Greigite        0.0     0.0
	        Pyrite          0.0     0.0
	        Pyrrhotite      0.0     0.0
	USER_GRAPH 1 Simulation 6
	    -headings               Pyrite Greigite Mackinawite Pyrrhotite
	    -axis_titles            "Fe and S added, Log moles" "Mineral, moles"
	    -chart_title            "Iron dominant system with H2S as the oxidant"
	    -axis_scale sy_axis     auto auto auto auto log
	    -initial_solutions      false
	    -connect_simulations    false
	    -axis_scale y_axis      auto auto auto auto Log
	    -axis_scale sy_axis	    auto auto auto auto Log
	    -plot_concentration_vs  x
	  -start
	 5 PUT(GET(1) + RXN, 1)
	  20 PLOT_XY log10(GET(1)), EQUI("Pyrite") color = Green, line_w = 0,   	symbol = Plus, symbol_size = 5, y_axis = 2
	  30 PLOT_XY log10(GET(1)), EQUI("Greigite") color = Blue, line_w = 0,   	symbol = Plus, symbol_size = 5, y_axis = 2
	  40 PLOT_XY log10(GET(1)), EQUI("Mackinawite") color = Cyan, line_w = 0,   	symbol = Plus, symbol_size = 5, y_axis = 2
	  50 PLOT_XY log10(GET(1)), EQUI("Pyrrhotite") color = Red, line_w = 0,   	symbol = Plus, symbol_size = 5, y_axis = 2
	  -end
	    -active                 true
	SELECTED_OUTPUT
	    file                 H2S Fe dominated 250mV pH 6 unfixed MGP pyrr 100 deg.csv
	    saturation_indices   Mackinawite  Greigite  Pyrite Pyrrhotite
	    reaction             
	    totals               Fe S
	    equilibrium_phases   Mackinawite  Greigite  Pyrite Pyrrhotite
	END
-----------------------------------------
Beginning of batch-reaction calculations.
-----------------------------------------

Reaction step 1.

Using solution 1.	PURE WATER
Using pure phase assemblage 1.	
Using reaction 1.	

Reaction 1.	

	  1.000e-12 moles of the following reaction have been added:

	                 Relative
	Reactant            moles

	Fe3S1                1.00000

	                 Relative
	Element             moles
	Fe                   3.00000
	S                    1.00000

-------------------------------Phase assemblage--------------------------------

                                                      Moles in assemblage
Phase               SI  log IAP  log K(T, P)   Initial       Final       Delta

Greigite        -99.59  -109.69    -10.10    0.000e+00           0   0.000e+00
Mackinawite     -27.01   -23.47      3.54    0.000e+00           0   0.000e+00
Pyrite          -36.86   -62.74    -25.88    0.000e+00           0   0.000e+00
Pyrrhotite      -26.04   -23.47      2.57    0.000e+00           0   0.000e+00

-----------------------------Solution composition------------------------------

	Elements           Molality       Moles

	Fe                3.000e-12   3.000e-12
	S                 1.000e-12   1.000e-12

----------------------------Description of solution----------------------------

                                       pH  =   6.016      Charge balance
                                       pe  =  -2.109      Adjusted to redox equilibrium
                        Activity of water  =   1.000
                 Ionic strength (mol/kgw)  =   9.652e-07
                       Mass of water (kg)  =   1.000e+00
                 Total alkalinity (eq/kg)  =   4.000e-12
                         Temperature (°C)  = 100.00
                  Electrical balance (eq)  =  -5.685e-21
 Percent error, 100*(Cat-|An|)/(Cat+|An|)  =  -0.00
                               Iterations  =  16
                                  Total H  = 1.110124e+02
                                  Total O  = 5.550622e+01

----------------------------Distribution of species----------------------------

                                               Log       Log       Log    mole V
   Species          Molality    Activity  Molality  Activity     Gamma    cm³/mol

   OH-             9.652e-07   9.639e-07    -6.015    -6.016    -0.001     (0)  
   H+              9.652e-07   9.639e-07    -6.015    -6.016    -0.001      0.00
   H2O             5.551e+01   1.000e+00     1.744    -0.000     0.000     18.80
Fe(2)         3.000e-12
   Fe+2            2.916e-12   2.900e-12   -11.535   -11.538    -0.002     (0)  
   FeOH+           8.386e-14   8.374e-14   -13.076   -13.077    -0.001     (0)  
   Fe(OH)2         1.357e-16   1.357e-16   -15.867   -15.867     0.000     (0)  
   Fe(OH)3-        9.438e-21   9.425e-21   -20.025   -20.026    -0.001     (0)  
   FeSO4           1.533e-21   1.533e-21   -20.814   -20.814     0.000     (0)  
   Fe(HS)2         0.000e+00   0.000e+00   -51.531   -51.531     0.000     (0)  
   Fe(HS)3-        0.000e+00   0.000e+00   -73.965   -73.966    -0.001     (0)  
Fe(3)         1.595e-19
   Fe(OH)2+        1.435e-19   1.433e-19   -18.843   -18.844    -0.001     (0)  
   FeOH+2          1.428e-20   1.420e-20   -19.845   -19.848    -0.002     (0)  
   Fe(OH)3         1.747e-21   1.747e-21   -20.758   -20.758     0.000     (0)  
   Fe(OH)4-        1.815e-23   1.812e-23   -22.741   -22.742    -0.001     (0)  
   Fe+3            6.304e-26   6.227e-26   -25.200   -25.206    -0.005     (0)  
   FeSO4+          1.942e-33   1.939e-33   -32.712   -32.712    -0.001     (0)  
   Fe2(OH)2+4      4.665e-40   4.565e-40   -39.331   -39.341    -0.009     (0)  
   Fe(SO4)2-       0.000e+00   0.000e+00   -43.113   -43.114    -0.001     (0)  
   Fe3(OH)4+5      0.000e+00   0.000e+00   -55.732   -55.746    -0.015     (0)  
H(0)          1.199e-11
   H2              5.993e-12   5.993e-12   -11.222   -11.222     0.000     (0)  
O(0)          0.000e+00
   O2              0.000e+00   0.000e+00   -50.596   -50.596     0.000     (0)  
S(-2)         1.433e-24
   H2S             1.079e-24   1.079e-24   -23.967   -23.967     0.000     (0)  
   HS-             3.380e-25   3.375e-25   -24.471   -24.472    -0.001     (0)  
   S5-2            2.098e-27   2.087e-27   -26.678   -26.681    -0.002     (0)  
   S4-2            1.402e-27   1.394e-27   -26.853   -26.856    -0.002     (0)  
   S6-2            4.631e-29   4.606e-29   -28.334   -28.337    -0.002     (0)  
   S-2             2.578e-30   2.564e-30   -29.589   -29.591    -0.002     (0)  
   S3-2            6.264e-31   6.230e-31   -30.203   -30.206    -0.002     (0)  
   S2-2            4.991e-32   4.964e-32   -31.302   -31.304    -0.002     (0)  
   Fe(HS)2         0.000e+00   0.000e+00   -51.531   -51.531     0.000     (0)  
   Fe(HS)3-        0.000e+00   0.000e+00   -73.965   -73.966    -0.001     (0)  
S(6)          1.000e-12
   SO4-2           9.991e-13   9.937e-13   -12.000   -12.003    -0.002     (0)  
   HSO4-           9.305e-16   9.293e-16   -15.031   -15.032    -0.001     (0)  
   FeSO4           1.533e-21   1.533e-21   -20.814   -20.814     0.000     (0)  
   FeSO4+          1.942e-33   1.939e-33   -32.712   -32.712    -0.001     (0)  
   Fe(SO4)2-       0.000e+00   0.000e+00   -43.113   -43.114    -0.001     (0)  

------------------------------Saturation indices-------------------------------

  Phase               SI** log IAP   log K(373 K,   1 atm)

  Fe2(SO4)3       -81.29    -86.42   -5.13  Fe2(SO4)3
  Fe3(OH)8        -34.04    -13.82   20.22  Fe3(OH)8
  Ferrihydrite    -12.05     -7.16    4.89  Fe(OH)3
  FeS(ppt)        -26.08    -29.99   -3.92  FeS
  Goethite         -5.52     -7.16   -1.63  FeOOH
  Greigite        -99.59   -109.69  -10.10  Fe3S4
  Hematite         -5.76    -14.32   -8.55  Fe2O3
  Jarosite-H      -49.32    -69.54  -20.22  (H3O)Fe3(SO4)2(OH)6
  Lepidocrocite    -8.53     -7.16    1.37  FeOOH
  Mackinawite     -27.01    -23.47    3.54  FeS
  Maghemite       -20.70    -14.32    6.39  Fe2O3
  Magnetite       -10.12    -13.82   -3.70  Fe3O4
  Melanterite     -21.49    -23.54   -2.05  FeSO4:7H2O
  O2(g)           -47.78     15.63   63.40  O2
  pe_fix            2.11      2.11    0.00  e-
  pH_fix           -6.02     -6.02    0.00  H+
  Pyrite          -36.86    -62.74  -25.88  FeS2
  Pyrrhotite      -26.04    -23.47    2.57  FeS
  Sulfur          -19.95    -22.67   -2.73  S

**For a gas, SI = log10(fugacity). Fugacity = pressure * phi / 1 atm.
  For ideal gases, phi = 1.

Reaction step 2.

Using solution 1.	PURE WATER
Using pure phase assemblage 1.	
Using reaction 1.	

Reaction 1.	

	  1.000e-12 moles of the following reaction have been added:

	                 Relative
	Reactant            moles

	Fe3S1                1.00000

	                 Relative
	Element             moles
	Fe                   3.00000
	S                    1.00000

-------------------------------Phase assemblage--------------------------------

                                                      Moles in assemblage
Phase               SI  log IAP  log K(T, P)   Initial       Final       Delta

Greigite        -92.97  -103.06    -10.10    0.000e+00           0   0.000e+00
Mackinawite     -25.20   -21.67      3.54    0.000e+00           0   0.000e+00
Pyrite          -33.85   -59.73    -25.88    0.000e+00           0   0.000e+00
Pyrrhotite      -24.23   -21.67      2.57    0.000e+00           0   0.000e+00

-----------------------------Solution composition------------------------------

	Elements           Molality       Moles

	Fe                6.000e-12   6.000e-12
	S                 2.000e-12   2.000e-12

----------------------------Description of solution----------------------------

                                       pH  =   6.016      Charge balance
                                       pe  =  -2.260      Adjusted to redox equilibrium
                        Activity of water  =   1.000
                 Ionic strength (mol/kgw)  =   9.652e-07
                       Mass of water (kg)  =   1.000e+00
                 Total alkalinity (eq/kg)  =   8.000e-12
                         Temperature (°C)  = 100.00
                  Electrical balance (eq)  =  -6.118e-21
 Percent error, 100*(Cat-|An|)/(Cat+|An|)  =  -0.00
                               Iterations  =   5
                                  Total H  = 1.110124e+02
                                  Total O  = 5.550622e+01

----------------------------Distribution of species----------------------------

                                               Log       Log       Log    mole V
   Species          Molality    Activity  Molality  Activity     Gamma    cm³/mol

   OH-             9.652e-07   9.639e-07    -6.015    -6.016    -0.001     (0)  
   H+              9.652e-07   9.639e-07    -6.015    -6.016    -0.001      0.00
   H2O             5.551e+01   1.000e+00     1.744    -0.000     0.000     18.80
Fe(2)         6.000e-12
   Fe+2            5.832e-12   5.800e-12   -11.234   -11.237    -0.002     (0)  
   FeOH+           1.677e-13   1.675e-13   -12.775   -12.776    -0.001     (0)  
   Fe(OH)2         2.715e-16   2.715e-16   -15.566   -15.566     0.000     (0)  
   Fe(OH)3-        1.888e-20   1.885e-20   -19.724   -19.725    -0.001     (0)  
   FeSO4           6.132e-21   6.132e-21   -20.212   -20.212     0.000     (0)  
   Fe(HS)2         0.000e+00   0.000e+00   -48.218   -48.218     0.000     (0)  
   Fe(HS)3-        0.000e+00   0.000e+00   -69.145   -69.146    -0.001     (0)  
Fe(3)         2.256e-19
   Fe(OH)2+        2.029e-19   2.026e-19   -18.693   -18.693    -0.001     (0)  
   FeOH+2          2.019e-20   2.008e-20   -19.695   -19.697    -0.002     (0)  
   Fe(OH)3         2.470e-21   2.470e-21   -20.607   -20.607     0.000     (0)  
   Fe(OH)4-        2.566e-23   2.562e-23   -22.591   -22.591    -0.001     (0)  
   Fe+3            8.912e-26   8.804e-26   -25.050   -25.055    -0.005     (0)  
   FeSO4+          5.490e-33   5.483e-33   -32.260   -32.261    -0.001     (0)  
   Fe2(OH)2+4      9.325e-40   9.124e-40   -39.030   -39.040    -0.009     (0)  
   Fe(SO4)2-       0.000e+00   0.000e+00   -42.360   -42.361    -0.001     (0)  
   Fe3(OH)4+5      0.000e+00   0.000e+00   -55.281   -55.295    -0.015     (0)  
H(0)          2.399e-11
   H2              1.199e-11   1.199e-11   -10.921   -10.921     0.000     (0)  
O(0)          0.000e+00
   O2              0.000e+00   0.000e+00   -51.198   -51.198     0.000     (0)  
S(-2)         4.598e-23
   H2S             3.461e-23   3.461e-23   -22.461   -22.461     0.000     (0)  
   HS-             1.084e-23   1.083e-23   -22.965   -22.965    -0.001     (0)  
   S5-2            6.729e-26   6.693e-26   -25.172   -25.174    -0.002     (0)  
   S4-2            4.497e-26   4.472e-26   -25.347   -25.349    -0.002     (0)  
   S6-2            1.485e-27   1.477e-27   -26.828   -26.831    -0.002     (0)  
   S-2             8.269e-29   8.224e-29   -28.083   -28.085    -0.002     (0)  
   S3-2            2.009e-29   1.998e-29   -28.697   -28.699    -0.002     (0)  
   S2-2            1.601e-30   1.592e-30   -29.796   -29.798    -0.002     (0)  
   Fe(HS)2         0.000e+00   0.000e+00   -48.218   -48.218     0.000     (0)  
   Fe(HS)3-        0.000e+00   0.000e+00   -69.145   -69.146    -0.001     (0)  
S(6)          2.000e-12
   SO4-2           1.998e-12   1.987e-12   -11.699   -11.702    -0.002     (0)  
   HSO4-           1.861e-15   1.858e-15   -14.730   -14.731    -0.001     (0)  
   FeSO4           6.132e-21   6.132e-21   -20.212   -20.212     0.000     (0)  
   FeSO4+          5.490e-33   5.483e-33   -32.260   -32.261    -0.001     (0)  
   Fe(SO4)2-       0.000e+00   0.000e+00   -42.360   -42.361    -0.001     (0)  

------------------------------Saturation indices-------------------------------

  Phase               SI** log IAP   log K(373 K,   1 atm)

  Fe2(SO4)3       -80.09    -85.22   -5.13  Fe2(SO4)3
  Fe3(OH)8        -33.44    -13.22   20.22  Fe3(OH)8
  Ferrihydrite    -11.90     -7.01    4.89  Fe(OH)3
  FeS(ppt)        -24.27    -28.19   -3.92  FeS
  Goethite         -5.37     -7.01   -1.63  FeOOH
  Greigite        -92.97   -103.06  -10.10  Fe3S4
  Hematite         -5.46    -14.01   -8.55  Fe2O3
  Jarosite-H      -48.26    -68.49  -20.22  (H3O)Fe3(SO4)2(OH)6
  Lepidocrocite    -8.38     -7.01    1.37  FeOOH
  Mackinawite     -25.20    -21.67    3.54  FeS
  Maghemite       -20.40    -14.01    6.39  Fe2O3
  Magnetite        -9.52    -13.22   -3.70  Fe3O4
  Melanterite     -20.89    -22.94   -2.05  FeSO4:7H2O
  O2(g)           -48.38     15.02   63.40  O2
  pe_fix            2.26      2.26    0.00  e-
  pH_fix           -6.02     -6.02    0.00  H+
  Pyrite          -33.85    -59.73  -25.88  FeS2
  Pyrrhotite      -24.23    -21.67    2.57  FeS
  Sulfur          -18.74    -21.47   -2.73  S

**For a gas, SI = log10(fugacity). Fugacity = pressure * phi / 1 atm.
  For ideal gases, phi = 1.

Reaction step 3.

Using solution 1.	PURE WATER
Using pure phase assemblage 1.	
Using reaction 1.	

Reaction 1.	

	  1.000e-12 moles of the following reaction have been added:

	                 Relative
	Reactant            moles

	Fe3S1                1.00000

	                 Relative
	Element             moles
	Fe                   3.00000
	S                    1.00000

-------------------------------Phase assemblage--------------------------------

                                                      Moles in assemblage
Phase               SI  log IAP  log K(T, P)   Initial       Final       Delta

Greigite        -89.09   -99.19    -10.10    0.000e+00           0   0.000e+00
Mackinawite     -24.15   -20.61      3.54    0.000e+00           0   0.000e+00
Pyrite          -32.09   -57.97    -25.88    0.000e+00           0   0.000e+00
Pyrrhotite      -23.18   -20.61      2.57    0.000e+00           0   0.000e+00

-----------------------------Solution composition------------------------------

	Elements           Molality       Moles

	Fe                9.000e-12   9.000e-12
	S                 3.000e-12   3.000e-12

----------------------------Description of solution----------------------------

                                       pH  =   6.016      Charge balance
                                       pe  =  -2.348      Adjusted to redox equilibrium
                        Activity of water  =   1.000
                 Ionic strength (mol/kgw)  =   9.652e-07
                       Mass of water (kg)  =   1.000e+00
                 Total alkalinity (eq/kg)  =   1.200e-11
                         Temperature (°C)  = 100.00
                  Electrical balance (eq)  =  -5.874e-21
 Percent error, 100*(Cat-|An|)/(Cat+|An|)  =  -0.00
                               Iterations  =   4
                                  Total H  = 1.110124e+02
                                  Total O  = 5.550622e+01

----------------------------Distribution of species----------------------------

                                               Log       Log       Log    mole V
   Species          Molality    Activity  Molality  Activity     Gamma    cm³/mol

   OH-             9.652e-07   9.639e-07    -6.015    -6.016    -0.001     (0)  
   H+              9.652e-07   9.639e-07    -6.015    -6.016    -0.001      0.00
   H2O             5.551e+01   1.000e+00     1.744    -0.000     0.000     18.80
Fe(2)         9.000e-12
   Fe+2            8.748e-12   8.701e-12   -11.058   -11.060    -0.002     (0)  
   FeOH+           2.516e-13   2.512e-13   -12.599   -12.600    -0.001     (0)  
   Fe(OH)2         4.072e-16   4.072e-16   -15.390   -15.390     0.000     (0)  
   Fe(OH)3-        2.831e-20   2.828e-20   -19.548   -19.549    -0.001     (0)  
   FeSO4           1.380e-20   1.380e-20   -19.860   -19.860     0.000     (0)  
   Fe(HS)2         0.000e+00   0.000e+00   -46.281   -46.281     0.000     (0)  
   Fe(HS)3-        0.000e+00   0.000e+00   -66.329   -66.330    -0.001     (0)  
Fe(3)         2.763e-19
   Fe(OH)2+        2.485e-19   2.482e-19   -18.605   -18.605    -0.001     (0)  
   FeOH+2          2.472e-20   2.459e-20   -19.607   -19.609    -0.002     (0)  
   Fe(OH)3         3.025e-21   3.025e-21   -20.519   -20.519     0.000     (0)  
   Fe(OH)4-        3.143e-23   3.138e-23   -22.503   -22.503    -0.001     (0)  
   Fe+3            1.092e-25   1.078e-25   -24.962   -24.967    -0.005     (0)  
   FeSO4+          1.009e-32   1.007e-32   -31.996   -31.997    -0.001     (0)  
   Fe2(OH)2+4      1.399e-39   1.369e-39   -38.854   -38.864    -0.009     (0)  
   Fe(SO4)2-       0.000e+00   0.000e+00   -41.920   -41.921    -0.001     (0)  
   Fe3(OH)4+5      0.000e+00   0.000e+00   -55.016   -55.031    -0.015     (0)  
H(0)          3.597e-11
   H2              1.799e-11   1.799e-11   -10.745   -10.745     0.000     (0)  
O(0)          0.000e+00
   O2              0.000e+00   0.000e+00   -51.550   -51.550     0.000     (0)  
S(-2)         3.489e-22
   H2S             2.626e-22   2.626e-22   -21.581   -21.581     0.000     (0)  
   HS-             8.226e-23   8.215e-23   -22.085   -22.085    -0.001     (0)  
   S5-2            5.106e-25   5.078e-25   -24.292   -24.294    -0.002     (0)  
   S4-2            3.412e-25   3.393e-25   -24.467   -24.469    -0.002     (0)  
   S6-2            1.127e-26   1.121e-26   -25.948   -25.950    -0.002     (0)  
   S-2             6.274e-28   6.241e-28   -27.202   -27.205    -0.002     (0)  
   S3-2            1.524e-28   1.516e-28   -27.817   -27.819    -0.002     (0)  
   S2-2            1.215e-29   1.208e-29   -28.916   -28.918    -0.002     (0)  
   Fe(HS)2         0.000e+00   0.000e+00   -46.281   -46.281     0.000     (0)  
   Fe(HS)3-        0.000e+00   0.000e+00   -66.329   -66.330    -0.001     (0)  
S(6)          3.000e-12
   SO4-2           2.997e-12   2.981e-12   -11.523   -11.526    -0.002     (0)  
   HSO4-           2.792e-15   2.788e-15   -14.554   -14.555    -0.001     (0)  
   FeSO4           1.380e-20   1.380e-20   -19.860   -19.860     0.000     (0)  
   FeSO4+          1.009e-32   1.007e-32   -31.996   -31.997    -0.001     (0)  
   Fe(SO4)2-       0.000e+00   0.000e+00   -41.920   -41.921    -0.001     (0)  

------------------------------Saturation indices-------------------------------

  Phase               SI** log IAP   log K(373 K,   1 atm)

  Fe2(SO4)3       -79.38    -84.51   -5.13  Fe2(SO4)3
  Fe3(OH)8        -33.09    -12.87   20.22  Fe3(OH)8
  Ferrihydrite    -11.81     -6.92    4.89  Fe(OH)3
  FeS(ppt)        -23.21    -27.13   -3.92  FeS
  Goethite         -5.29     -6.92   -1.63  FeOOH
  Greigite        -89.09    -99.19  -10.10  Fe3S4
  Hematite         -5.29    -13.84   -8.55  Fe2O3
  Jarosite-H      -47.65    -67.87  -20.22  (H3O)Fe3(SO4)2(OH)6
  Lepidocrocite    -8.29     -6.92    1.37  FeOOH
  Mackinawite     -24.15    -20.61    3.54  FeS
  Maghemite       -20.22    -13.84    6.39  Fe2O3
  Magnetite        -9.17    -12.87   -3.70  Fe3O4
  Melanterite     -20.54    -22.59   -2.05  FeSO4:7H2O
  O2(g)           -48.73     14.67   63.40  O2
  pe_fix            2.35      2.35    0.00  e-
  pH_fix           -6.02     -6.02    0.00  H+
  Pyrite          -32.09    -57.97  -25.88  FeS2
  Pyrrhotite      -23.18    -20.61    2.57  FeS
  Sulfur          -18.04    -20.77   -2.73  S

**For a gas, SI = log10(fugacity). Fugacity = pressure * phi / 1 atm.
  For ideal gases, phi = 1.

Reaction step 4.

Using solution 1.	PURE WATER
Using pure phase assemblage 1.	
Using reaction 1.	

Reaction 1.	

	  1.000e-12 moles of the following reaction have been added:

	                 Relative
	Reactant            moles

	Fe3S1                1.00000

	                 Relative
	Element             moles
	Fe                   3.00000
	S                    1.00000

-------------------------------Phase assemblage--------------------------------

                                                      Moles in assemblage
Phase               SI  log IAP  log K(T, P)   Initial       Final       Delta

Greigite        -86.35   -96.44    -10.10    0.000e+00           0   0.000e+00
Mackinawite     -23.40   -19.86      3.54    0.000e+00           0   0.000e+00
Pyrite          -30.84   -56.72    -25.88    0.000e+00           0   0.000e+00
Pyrrhotite      -22.43   -19.86      2.57    0.000e+00           0   0.000e+00

-----------------------------Solution composition------------------------------

	Elements           Molality       Moles

	Fe                1.200e-11   1.200e-11
	S                 4.000e-12   4.000e-12

----------------------------Description of solution----------------------------

                                       pH  =   6.016      Charge balance
                                       pe  =  -2.410      Adjusted to redox equilibrium
                        Activity of water  =   1.000
                 Ionic strength (mol/kgw)  =   9.652e-07
                       Mass of water (kg)  =   1.000e+00
                 Total alkalinity (eq/kg)  =   1.600e-11
                         Temperature (°C)  = 100.00
                  Electrical balance (eq)  =  -5.854e-21
 Percent error, 100*(Cat-|An|)/(Cat+|An|)  =  -0.00
                               Iterations  =   4
                                  Total H  = 1.110124e+02
                                  Total O  = 5.550622e+01

----------------------------Distribution of species----------------------------

                                               Log       Log       Log    mole V
   Species          Molality    Activity  Molality  Activity     Gamma    cm³/mol

   OH-             9.652e-07   9.639e-07    -6.015    -6.016    -0.001     (0)  
   H+              9.652e-07   9.639e-07    -6.015    -6.016    -0.001      0.00
   H2O             5.551e+01   1.000e+00     1.744    -0.000     0.000     18.80
Fe(2)         1.200e-11
   Fe+2            1.166e-11   1.160e-11   -10.933   -10.936    -0.002     (0)  
   FeOH+           3.354e-13   3.350e-13   -12.474   -12.475    -0.001     (0)  
   Fe(OH)2         5.430e-16   5.430e-16   -15.265   -15.265     0.000     (0)  
   Fe(OH)3-        3.775e-20   3.770e-20   -19.423   -19.424    -0.001     (0)  
   FeSO4           2.453e-20   2.453e-20   -19.610   -19.610     0.000     (0)  
   Fe(HS)2         0.000e+00   0.000e+00   -44.907   -44.907     0.000     (0)  
   Fe(HS)3-        0.000e+00   0.000e+00   -64.330   -64.331    -0.001     (0)  
Fe(3)         3.190e-19
   Fe(OH)2+        2.870e-19   2.866e-19   -18.542   -18.543    -0.001     (0)  
   FeOH+2          2.855e-20   2.840e-20   -19.544   -19.547    -0.002     (0)  
   Fe(OH)3         3.493e-21   3.493e-21   -20.457   -20.457     0.000     (0)  
   Fe(OH)4-        3.629e-23   3.624e-23   -22.440   -22.441    -0.001     (0)  
   Fe+3            1.261e-25   1.245e-25   -24.899   -24.905    -0.005     (0)  
   FeSO4+          1.553e-32   1.551e-32   -31.809   -31.809    -0.001     (0)  
   Fe2(OH)2+4      1.865e-39   1.825e-39   -38.729   -38.739    -0.009     (0)  
   Fe(SO4)2-       0.000e+00   0.000e+00   -41.608   -41.608    -0.001     (0)  
   Fe3(OH)4+5      0.000e+00   0.000e+00   -54.829   -54.844    -0.015     (0)  
H(0)          4.796e-11
   H2              2.398e-11   2.398e-11   -10.620   -10.620     0.000     (0)  
O(0)          0.000e+00
   O2              0.000e+00   0.000e+00   -51.800   -51.800     0.000     (0)  
S(-2)         1.470e-21
   H2S             1.106e-21   1.106e-21   -20.956   -20.956     0.000     (0)  
   HS-             3.465e-22   3.461e-22   -21.460   -21.461    -0.001     (0)  
   S5-2            2.151e-24   2.139e-24   -23.667   -23.670    -0.002     (0)  
   S4-2            1.437e-24   1.429e-24   -23.842   -23.845    -0.002     (0)  
   S6-2            4.748e-26   4.722e-26   -25.324   -25.326    -0.002     (0)  
   S-2             2.643e-27   2.629e-27   -26.578   -26.580    -0.002     (0)  
   S3-2            6.422e-28   6.387e-28   -27.192   -27.195    -0.002     (0)  
   S2-2            5.117e-29   5.089e-29   -28.291   -28.293    -0.002     (0)  
   Fe(HS)2         0.000e+00   0.000e+00   -44.907   -44.907     0.000     (0)  
   Fe(HS)3-        0.000e+00   0.000e+00   -64.330   -64.331    -0.001     (0)  
S(6)          4.000e-12
   SO4-2           3.996e-12   3.975e-12   -11.398   -11.401    -0.002     (0)  
   HSO4-           3.722e-15   3.717e-15   -14.429   -14.430    -0.001     (0)  
   FeSO4           2.453e-20   2.453e-20   -19.610   -19.610     0.000     (0)  
   FeSO4+          1.553e-32   1.551e-32   -31.809   -31.809    -0.001     (0)  
   Fe(SO4)2-       0.000e+00   0.000e+00   -41.608   -41.608    -0.001     (0)  

------------------------------Saturation indices-------------------------------

  Phase               SI** log IAP   log K(373 K,   1 atm)

  Fe2(SO4)3       -78.88    -84.01   -5.13  Fe2(SO4)3
  Fe3(OH)8        -32.84    -12.62   20.22  Fe3(OH)8
  Ferrihydrite    -11.75     -6.86    4.89  Fe(OH)3
  FeS(ppt)        -22.47    -26.38   -3.92  FeS
  Goethite         -5.22     -6.86   -1.63  FeOOH
  Greigite        -86.35    -96.44  -10.10  Fe3S4
  Hematite         -5.16    -13.71   -8.55  Fe2O3
  Jarosite-H      -47.21    -67.44  -20.22  (H3O)Fe3(SO4)2(OH)6
  Lepidocrocite    -8.23     -6.86    1.37  FeOOH
  Mackinawite     -23.40    -19.86    3.54  FeS
  Maghemite       -20.10    -13.71    6.39  Fe2O3
  Magnetite        -8.92    -12.62   -3.70  Fe3O4
  Melanterite     -20.29    -22.34   -2.05  FeSO4:7H2O
  O2(g)           -48.98     14.42   63.40  O2
  pe_fix            2.41      2.41    0.00  e-
  pH_fix           -6.02     -6.02    0.00  H+
  Pyrite          -30.84    -56.72  -25.88  FeS2
  Pyrrhotite      -22.43    -19.86    2.57  FeS
  Sulfur          -17.54    -20.27   -2.73  S

**For a gas, SI = log10(fugacity). Fugacity = pressure * phi / 1 atm.
  For ideal gases, phi = 1.

Reaction step 5.

Using solution 1.	PURE WATER
Using pure phase assemblage 1.	
Using reaction 1.	

Reaction 1.	

	  1.000e-12 moles of the following reaction have been added:

	                 Relative
	Reactant            moles

	Fe3S1                1.00000

	                 Relative
	Element             moles
	Fe                   3.00000
	S                    1.00000

-------------------------------Phase assemblage--------------------------------

                                                      Moles in assemblage
Phase               SI  log IAP  log K(T, P)   Initial       Final       Delta

Greigite        -84.21   -94.31    -10.10    0.000e+00           0   0.000e+00
Mackinawite     -22.82   -19.28      3.54    0.000e+00           0   0.000e+00
Pyrite          -29.87   -55.75    -25.88    0.000e+00           0   0.000e+00
Pyrrhotite      -21.84   -19.28      2.57    0.000e+00           0   0.000e+00

-----------------------------Solution composition------------------------------

	Elements           Molality       Moles

	Fe                1.500e-11   1.500e-11
	S                 5.000e-12   5.000e-12

----------------------------Description of solution----------------------------

                                       pH  =   6.016      Charge balance
                                       pe  =  -2.459      Adjusted to redox equilibrium
                        Activity of water  =   1.000
                 Ionic strength (mol/kgw)  =   9.652e-07
                       Mass of water (kg)  =   1.000e+00
                 Total alkalinity (eq/kg)  =   2.000e-11
                         Temperature (°C)  = 100.00
                  Electrical balance (eq)  =   1.245e-18
 Percent error, 100*(Cat-|An|)/(Cat+|An|)  =   0.00
                               Iterations  =   3
                                  Total H  = 1.110124e+02
                                  Total O  = 5.550622e+01

----------------------------Distribution of species----------------------------

                                               Log       Log       Log    mole V
   Species          Molality    Activity  Molality  Activity     Gamma    cm³/mol

   OH-             9.652e-07   9.639e-07    -6.015    -6.016    -0.001     (0)  
   H+              9.652e-07   9.639e-07    -6.015    -6.016    -0.001      0.00
   H2O             5.551e+01   1.000e+00     1.744    -0.000     0.000     18.80
Fe(2)         1.500e-11
   Fe+2            1.458e-11   1.450e-11   -10.836   -10.839    -0.002     (0)  
   FeOH+           4.193e-13   4.187e-13   -12.377   -12.378    -0.001     (0)  
   Fe(OH)2         6.787e-16   6.787e-16   -15.168   -15.168     0.000     (0)  
   Fe(OH)3-        4.719e-20   4.713e-20   -19.326   -19.327    -0.001     (0)  
   FeSO4           3.832e-20   3.832e-20   -19.417   -19.417     0.000     (0)  
   Fe(HS)2         0.000e+00   0.000e+00   -43.841   -43.841     0.000     (0)  
   Fe(HS)3-        0.000e+00   0.000e+00   -62.779   -62.780    -0.001     (0)  
Fe(3)         3.567e-19
   Fe(OH)2+        3.208e-19   3.204e-19   -18.494   -18.494    -0.001     (0)  
   FeOH+2          3.192e-20   3.175e-20   -19.496   -19.498    -0.002     (0)  
   Fe(OH)3         3.905e-21   3.905e-21   -20.408   -20.408     0.000     (0)  
   Fe(OH)4-        4.057e-23   4.052e-23   -22.392   -22.392    -0.001     (0)  
   Fe+3            1.409e-25   1.392e-25   -24.851   -24.856    -0.005     (0)  
   FeSO4+          2.170e-32   2.167e-32   -31.663   -31.664    -0.001     (0)  
   Fe2(OH)2+4      2.331e-39   2.281e-39   -38.632   -38.642    -0.009     (0)  
   Fe(SO4)2-       0.000e+00   0.000e+00   -41.366   -41.366    -0.001     (0)  
   Fe3(OH)4+5      0.000e+00   0.000e+00   -54.684   -54.698    -0.015     (0)  
H(0)          5.996e-11
   H2              2.998e-11   2.998e-11   -10.523   -10.523     0.000     (0)  
O(0)          0.000e+00
   O2              0.000e+00   0.000e+00   -51.994   -51.994     0.000     (0)  
S(-2)         4.488e-21
   H2S             3.378e-21   3.378e-21   -20.471   -20.471     0.000     (0)  
   HS-             1.058e-21   1.057e-21   -20.975   -20.976    -0.001     (0)  
   S5-2            6.568e-24   6.533e-24   -23.183   -23.185    -0.002     (0)  
   S4-2            4.389e-24   4.365e-24   -23.358   -23.360    -0.002     (0)  
   S6-2            1.450e-25   1.442e-25   -24.839   -24.841    -0.002     (0)  
   S-2             8.072e-27   8.028e-27   -26.093   -26.095    -0.002     (0)  
   S3-2            1.961e-27   1.951e-27   -26.707   -26.710    -0.002     (0)  
   S2-2            1.563e-28   1.554e-28   -27.806   -27.809    -0.002     (0)  
   Fe(HS)2         0.000e+00   0.000e+00   -43.841   -43.841     0.000     (0)  
   Fe(HS)3-        0.000e+00   0.000e+00   -62.779   -62.780    -0.001     (0)  
S(6)          5.000e-12
   SO4-2           4.995e-12   4.968e-12   -11.301   -11.304    -0.002     (0)  
   HSO4-           4.653e-15   4.646e-15   -14.332   -14.333    -0.001     (0)  
   FeSO4           3.832e-20   3.832e-20   -19.417   -19.417     0.000     (0)  
   FeSO4+          2.170e-32   2.167e-32   -31.663   -31.664    -0.001     (0)  
   Fe(SO4)2-       0.000e+00   0.000e+00   -41.366   -41.366    -0.001     (0)  

------------------------------Saturation indices-------------------------------

  Phase               SI** log IAP   log K(373 K,   1 atm)

  Fe2(SO4)3       -78.49    -83.62   -5.13  Fe2(SO4)3
  Fe3(OH)8        -32.65    -12.42   20.22  Fe3(OH)8
  Ferrihydrite    -11.70     -6.81    4.89  Fe(OH)3
  FeS(ppt)        -21.88    -25.80   -3.92  FeS
  Goethite         -5.18     -6.81   -1.63  FeOOH
  Greigite        -84.21    -94.31  -10.10  Fe3S4
  Hematite         -5.06    -13.62   -8.55  Fe2O3
  Jarosite-H      -46.87    -67.10  -20.22  (H3O)Fe3(SO4)2(OH)6
  Lepidocrocite    -8.18     -6.81    1.37  FeOOH
  Mackinawite     -22.82    -19.28    3.54  FeS
  Maghemite       -20.00    -13.62    6.39  Fe2O3
  Magnetite        -8.73    -12.42   -3.70  Fe3O4
  Melanterite     -20.09    -22.14   -2.05  FeSO4:7H2O
  O2(g)           -49.18     14.23   63.40  O2
  pe_fix            2.46      2.46    0.00  e-
  pH_fix           -6.02     -6.02    0.00  H+
  Pyrite          -29.87    -55.75  -25.88  FeS2
  Pyrrhotite      -21.84    -19.28    2.57  FeS
  Sulfur          -17.15    -19.88   -2.73  S

**For a gas, SI = log10(fugacity). Fugacity = pressure * phi / 1 atm.
  For ideal gases, phi = 1.

Reaction step 6.

Using solution 1.	PURE WATER
Using pure phase assemblage 1.	
Using reaction 1.	

Reaction 1.	

	  1.000e-12 moles of the following reaction have been added:

	                 Relative
	Reactant            moles

	Fe3S1                1.00000

	                 Relative
	Element             moles
	Fe                   3.00000
	S                    1.00000

-------------------------------Phase assemblage--------------------------------

                                                      Moles in assemblage
Phase               SI  log IAP  log K(T, P)   Initial       Final       Delta

Greigite        -82.47   -92.57    -10.10    0.000e+00           0   0.000e+00
Mackinawite     -22.34   -18.80      3.54    0.000e+00           0   0.000e+00
Pyrite          -29.08   -54.96    -25.88    0.000e+00           0   0.000e+00
Pyrrhotite      -21.37   -18.80      2.57    0.000e+00           0   0.000e+00

-----------------------------Solution composition------------------------------

	Elements           Molality       Moles

	Fe                1.800e-11   1.800e-11
	S                 6.000e-12   6.000e-12

----------------------------Description of solution----------------------------

                                       pH  =   6.016      Charge balance
                                       pe  =  -2.499      Adjusted to redox equilibrium
                        Activity of water  =   1.000
                 Ionic strength (mol/kgw)  =   9.652e-07
                       Mass of water (kg)  =   1.000e+00
                 Total alkalinity (eq/kg)  =   2.400e-11
                         Temperature (°C)  = 100.00
                  Electrical balance (eq)  =   1.530e-18
 Percent error, 100*(Cat-|An|)/(Cat+|An|)  =   0.00
                               Iterations  =   3
                                  Total H  = 1.110124e+02
                                  Total O  = 5.550622e+01

----------------------------Distribution of species----------------------------

                                               Log       Log       Log    mole V
   Species          Molality    Activity  Molality  Activity     Gamma    cm³/mol

   OH-             9.652e-07   9.639e-07    -6.015    -6.016    -0.001     (0)  
   H+              9.652e-07   9.639e-07    -6.015    -6.016    -0.001      0.00
   H2O             5.551e+01   1.000e+00     1.744    -0.000     0.000     18.80
Fe(2)         1.800e-11
   Fe+2            1.750e-11   1.740e-11   -10.757   -10.759    -0.002     (0)  
   FeOH+           5.031e-13   5.025e-13   -12.298   -12.299    -0.001     (0)  
   Fe(OH)2         8.144e-16   8.144e-16   -15.089   -15.089     0.000     (0)  
   Fe(OH)3-        5.663e-20   5.655e-20   -19.247   -19.248    -0.001     (0)  
   FeSO4           5.519e-20   5.519e-20   -19.258   -19.258     0.000     (0)  
   Fe(HS)2         0.000e+00   0.000e+00   -42.970   -42.970     0.000     (0)  
   Fe(HS)3-        0.000e+00   0.000e+00   -61.513   -61.513    -0.001     (0)  
Fe(3)         3.907e-19
   Fe(OH)2+        3.514e-19   3.510e-19   -18.454   -18.455    -0.001     (0)  
   FeOH+2          3.497e-20   3.478e-20   -19.456   -19.459    -0.002     (0)  
   Fe(OH)3         4.278e-21   4.278e-21   -20.369   -20.369     0.000     (0)  
   Fe(OH)4-        4.445e-23   4.438e-23   -22.352   -22.353    -0.001     (0)  
   Fe+3            1.544e-25   1.525e-25   -24.811   -24.817    -0.005     (0)  
   FeSO4+          2.853e-32   2.849e-32   -31.545   -31.545    -0.001     (0)  
   Fe2(OH)2+4      2.798e-39   2.738e-39   -38.553   -38.563    -0.009     (0)  
   Fe(SO4)2-       0.000e+00   0.000e+00   -41.168   -41.168    -0.001     (0)  
   Fe3(OH)4+5      0.000e+00   0.000e+00   -54.565   -54.579    -0.015     (0)  
H(0)          7.194e-11
   H2              3.597e-11   3.597e-11   -10.444   -10.444     0.000     (0)  
O(0)          0.000e+00
   O2              0.000e+00   0.000e+00   -52.152   -52.152     0.000     (0)  
S(-2)         1.116e-20
   H2S             8.404e-21   8.404e-21   -20.076   -20.076     0.000     (0)  
   HS-             2.632e-21   2.629e-21   -20.580   -20.580    -0.001     (0)  
   S5-2            1.634e-23   1.625e-23   -22.787   -22.789    -0.002     (0)  
   S4-2            1.092e-23   1.086e-23   -22.962   -22.964    -0.002     (0)  
   S6-2            3.607e-25   3.587e-25   -24.443   -24.445    -0.002     (0)  
   S-2             2.008e-26   1.997e-26   -25.697   -25.700    -0.002     (0)  
   S3-2            4.878e-27   4.852e-27   -26.312   -26.314    -0.002     (0)  
   S2-2            3.887e-28   3.866e-28   -27.410   -27.413    -0.002     (0)  
   Fe(HS)2         0.000e+00   0.000e+00   -42.970   -42.970     0.000     (0)  
   Fe(HS)3-        0.000e+00   0.000e+00   -61.513   -61.513    -0.001     (0)  
S(6)          6.000e-12
   SO4-2           5.994e-12   5.962e-12   -11.222   -11.225    -0.002     (0)  
   HSO4-           5.583e-15   5.575e-15   -14.253   -14.254    -0.001     (0)  
   FeSO4           5.519e-20   5.519e-20   -19.258   -19.258     0.000     (0)  
   FeSO4+          2.853e-32   2.849e-32   -31.545   -31.545    -0.001     (0)  
   Fe(SO4)2-       0.000e+00   0.000e+00   -41.168   -41.168    -0.001     (0)  

------------------------------Saturation indices-------------------------------

  Phase               SI** log IAP   log K(373 K,   1 atm)

  Fe2(SO4)3       -78.18    -83.31   -5.13  Fe2(SO4)3
  Fe3(OH)8        -32.49    -12.26   20.22  Fe3(OH)8
  Ferrihydrite    -11.66     -6.77    4.89  Fe(OH)3
  FeS(ppt)        -21.41    -25.32   -3.92  FeS
  Goethite         -5.14     -6.77   -1.63  FeOOH
  Greigite        -82.47    -92.57  -10.10  Fe3S4
  Hematite         -4.99    -13.54   -8.55  Fe2O3
  Jarosite-H      -46.59    -66.82  -20.22  (H3O)Fe3(SO4)2(OH)6
  Lepidocrocite    -8.14     -6.77    1.37  FeOOH
  Mackinawite     -22.34    -18.80    3.54  FeS
  Maghemite       -19.92    -13.54    6.39  Fe2O3
  Magnetite        -8.57    -12.26   -3.70  Fe3O4
  Melanterite     -19.94    -21.98   -2.05  FeSO4:7H2O
  O2(g)           -49.33     14.07   63.40  O2
  pe_fix            2.50      2.50    0.00  e-
  pH_fix           -6.02     -6.02    0.00  H+
  Pyrite          -29.08    -54.96  -25.88  FeS2
  Pyrrhotite      -21.37    -18.80    2.57  FeS
  Sulfur          -16.83    -19.56   -2.73  S

**For a gas, SI = log10(fugacity). Fugacity = pressure * phi / 1 atm.
  For ideal gases, phi = 1.

Reaction step 7.

Using solution 1.	PURE WATER
Using pure phase assemblage 1.	
Using reaction 1.	

Reaction 1.	

	  1.000e-12 moles of the following reaction have been added:

	                 Relative
	Reactant            moles

	Fe3S1                1.00000

	                 Relative
	Element             moles
	Fe                   3.00000
	S                    1.00000

-------------------------------Phase assemblage--------------------------------

                                                      Moles in assemblage
Phase               SI  log IAP  log K(T, P)   Initial       Final       Delta

Greigite        -81.00   -91.09    -10.10    0.000e+00           0   0.000e+00
Mackinawite     -21.94   -18.40      3.54    0.000e+00           0   0.000e+00
Pyrite          -28.41   -54.29    -25.88    0.000e+00           0   0.000e+00
Pyrrhotite      -20.97   -18.40      2.57    0.000e+00           0   0.000e+00

-----------------------------Solution composition------------------------------

	Elements           Molality       Moles

	Fe                2.100e-11   2.100e-11
	S                 7.000e-12   7.000e-12

----------------------------Description of solution----------------------------

                                       pH  =   6.016      Charge balance
                                       pe  =  -2.532      Adjusted to redox equilibrium
                        Activity of water  =   1.000
                 Ionic strength (mol/kgw)  =   9.652e-07
                       Mass of water (kg)  =   1.000e+00
                 Total alkalinity (eq/kg)  =   2.800e-11
                         Temperature (°C)  = 100.00
                  Electrical balance (eq)  =   1.614e-18
 Percent error, 100*(Cat-|An|)/(Cat+|An|)  =   0.00
                               Iterations  =   3
                                  Total H  = 1.110124e+02
                                  Total O  = 5.550622e+01

----------------------------Distribution of species----------------------------

                                               Log       Log       Log    mole V
   Species          Molality    Activity  Molality  Activity     Gamma    cm³/mol

   OH-             9.652e-07   9.639e-07    -6.015    -6.016    -0.001     (0)  
   H+              9.652e-07   9.639e-07    -6.015    -6.016    -0.001      0.00
   H2O             5.551e+01   1.000e+00     1.744    -0.000     0.000     18.80
Fe(2)         2.100e-11
   Fe+2            2.041e-11   2.030e-11   -10.690   -10.692    -0.002     (0)  
   FeOH+           5.870e-13   5.862e-13   -12.231   -12.232    -0.001     (0)  
   Fe(OH)2         9.502e-16   9.502e-16   -15.022   -15.022     0.000     (0)  
   FeSO4           7.512e-20   7.512e-20   -19.124   -19.124     0.000     (0)  
   Fe(OH)3-        6.607e-20   6.598e-20   -19.180   -19.181    -0.001     (0)  
   Fe(HS)2         0.000e+00   0.000e+00   -42.233   -42.233     0.000     (0)  
   Fe(HS)3-        0.000e+00   0.000e+00   -60.441   -60.441    -0.001     (0)  
Fe(3)         4.220e-19
   Fe(OH)2+        3.796e-19   3.791e-19   -18.421   -18.421    -0.001     (0)  
   FeOH+2          3.777e-20   3.756e-20   -19.423   -19.425    -0.002     (0)  
   Fe(OH)3         4.621e-21   4.621e-21   -20.335   -20.335     0.000     (0)  
   Fe(OH)4-        4.800e-23   4.794e-23   -22.319   -22.319    -0.001     (0)  
   Fe+3            1.667e-25   1.647e-25   -24.778   -24.783    -0.005     (0)  
   FeSO4+          3.595e-32   3.590e-32   -31.444   -31.445    -0.001     (0)  
   Fe2(OH)2+4      3.264e-39   3.194e-39   -38.486   -38.496    -0.009     (0)  
   Fe(SO4)2-       0.000e+00   0.000e+00   -41.000   -41.001    -0.001     (0)  
   Fe3(OH)4+5      0.000e+00   0.000e+00   -54.464   -54.479    -0.015     (0)  
H(0)          8.394e-11
   H2              4.197e-11   4.197e-11   -10.377   -10.377     0.000     (0)  
O(0)          0.000e+00
   O2              0.000e+00   0.000e+00   -52.286   -52.286     0.000     (0)  
S(-2)         2.414e-20
   H2S             1.817e-20   1.817e-20   -19.741   -19.741     0.000     (0)  
   HS-             5.692e-21   5.685e-21   -20.245   -20.245    -0.001     (0)  
   S5-2            3.533e-23   3.514e-23   -22.452   -22.454    -0.002     (0)  
   S4-2            2.361e-23   2.348e-23   -22.627   -22.629    -0.002     (0)  
   S6-2            7.799e-25   7.757e-25   -24.108   -24.110    -0.002     (0)  
   S-2             4.342e-26   4.318e-26   -25.362   -25.365    -0.002     (0)  
   S3-2            1.055e-26   1.049e-26   -25.977   -25.979    -0.002     (0)  
   S2-2            8.405e-28   8.359e-28   -27.075   -27.078    -0.002     (0)  
   Fe(HS)2         0.000e+00   0.000e+00   -42.233   -42.233     0.000     (0)  
   Fe(HS)3-        0.000e+00   0.000e+00   -60.441   -60.441    -0.001     (0)  
S(6)          7.000e-12
   SO4-2           6.993e-12   6.956e-12   -11.155   -11.158    -0.002     (0)  
   HSO4-           6.513e-15   6.505e-15   -14.186   -14.187    -0.001     (0)  
   FeSO4           7.512e-20   7.512e-20   -19.124   -19.124     0.000     (0)  
   FeSO4+          3.595e-32   3.590e-32   -31.444   -31.445    -0.001     (0)  
   Fe(SO4)2-       0.000e+00   0.000e+00   -41.000   -41.001    -0.001     (0)  

------------------------------Saturation indices-------------------------------

  Phase               SI** log IAP   log K(373 K,   1 atm)

  Fe2(SO4)3       -77.91    -83.04   -5.13  Fe2(SO4)3
  Fe3(OH)8        -32.35    -12.13   20.22  Fe3(OH)8
  Ferrihydrite    -11.63     -6.74    4.89  Fe(OH)3
  FeS(ppt)        -21.01    -24.92   -3.92  FeS
  Goethite         -5.10     -6.74   -1.63  FeOOH
  Greigite        -81.00    -91.09  -10.10  Fe3S4
  Hematite         -4.92    -13.47   -8.55  Fe2O3
  Jarosite-H      -46.36    -66.59  -20.22  (H3O)Fe3(SO4)2(OH)6
  Lepidocrocite    -8.11     -6.74    1.37  FeOOH
  Mackinawite     -21.94    -18.40    3.54  FeS
  Maghemite       -19.86    -13.47    6.39  Fe2O3
  Magnetite        -8.43    -12.13   -3.70  Fe3O4
  Melanterite     -19.80    -21.85   -2.05  FeSO4:7H2O
  O2(g)           -49.47     13.94   63.40  O2
  pe_fix            2.53      2.53    0.00  e-
  pH_fix           -6.02     -6.02    0.00  H+
  Pyrite          -28.41    -54.29  -25.88  FeS2
  Pyrrhotite      -20.97    -18.40    2.57  FeS
  Sulfur          -16.56    -19.29   -2.73  S

**For a gas, SI = log10(fugacity). Fugacity = pressure * phi / 1 atm.
  For ideal gases, phi = 1.

Reaction step 8.

Using solution 1.	PURE WATER
Using pure phase assemblage 1.	
Using reaction 1.	

Reaction 1.	

	  1.000e-12 moles of the following reaction have been added:

	                 Relative
	Reactant            moles

	Fe3S1                1.00000

	                 Relative
	Element             moles
	Fe                   3.00000
	S                    1.00000

-------------------------------Phase assemblage--------------------------------

                                                      Moles in assemblage
Phase               SI  log IAP  log K(T, P)   Initial       Final       Delta

Greigite        -79.72   -89.82    -10.10    0.000e+00           0   0.000e+00
Mackinawite     -21.59   -18.05      3.54    0.000e+00           0   0.000e+00
Pyrite          -27.83   -53.71    -25.88    0.000e+00           0   0.000e+00
Pyrrhotite      -20.62   -18.05      2.57    0.000e+00           0   0.000e+00

-----------------------------Solution composition------------------------------

	Elements           Molality       Moles

	Fe                2.400e-11   2.400e-11
	S                 8.000e-12   8.000e-12

----------------------------Description of solution----------------------------

                                       pH  =   6.016      Charge balance
                                       pe  =  -2.561      Adjusted to redox equilibrium
                        Activity of water  =   1.000
                 Ionic strength (mol/kgw)  =   9.652e-07
                       Mass of water (kg)  =   1.000e+00
                 Total alkalinity (eq/kg)  =   3.200e-11
                         Temperature (°C)  = 100.00
                  Electrical balance (eq)  =   1.642e-18
 Percent error, 100*(Cat-|An|)/(Cat+|An|)  =   0.00
                               Iterations  =   3
                                  Total H  = 1.110124e+02
                                  Total O  = 5.550622e+01

----------------------------Distribution of species----------------------------

                                               Log       Log       Log    mole V
   Species          Molality    Activity  Molality  Activity     Gamma    cm³/mol

   OH-             9.652e-07   9.639e-07    -6.015    -6.016    -0.001     (0)  
   H+              9.652e-07   9.639e-07    -6.015    -6.016    -0.001      0.00
   H2O             5.551e+01   1.000e+00     1.744    -0.000     0.000     18.80
Fe(2)         2.400e-11
   Fe+2            2.333e-11   2.320e-11   -10.632   -10.634    -0.002     (0)  
   FeOH+           6.709e-13   6.699e-13   -12.173   -12.174    -0.001     (0)  
   Fe(OH)2         1.086e-15   1.086e-15   -14.964   -14.964     0.000     (0)  
   FeSO4           9.811e-20   9.811e-20   -19.008   -19.008     0.000     (0)  
   Fe(OH)3-        7.551e-20   7.540e-20   -19.122   -19.123    -0.001     (0)  
   Fe(HS)2         0.000e+00   0.000e+00   -41.595   -41.595     0.000     (0)  
   Fe(HS)3-        0.000e+00   0.000e+00   -59.512   -59.513    -0.001     (0)  
Fe(3)         4.511e-19
   Fe(OH)2+        4.058e-19   4.052e-19   -18.392   -18.392    -0.001     (0)  
   FeOH+2          4.037e-20   4.015e-20   -19.394   -19.396    -0.002     (0)  
   Fe(OH)3         4.939e-21   4.939e-21   -20.306   -20.306     0.000     (0)  
   Fe(OH)4-        5.132e-23   5.125e-23   -22.290   -22.290    -0.001     (0)  
   Fe+3            1.782e-25   1.761e-25   -24.749   -24.754    -0.005     (0)  
   FeSO4+          4.392e-32   4.386e-32   -31.357   -31.358    -0.001     (0)  
   Fe2(OH)2+4      3.730e-39   3.650e-39   -38.428   -38.438    -0.009     (0)  
   Fe(SO4)2-       0.000e+00   0.000e+00   -40.855   -40.856    -0.001     (0)  
   Fe3(OH)4+5      0.000e+00   0.000e+00   -54.377   -54.392    -0.015     (0)  
H(0)          9.594e-11
   H2              4.797e-11   4.797e-11   -10.319   -10.319     0.000     (0)  
O(0)          0.000e+00
   O2              0.000e+00   0.000e+00   -52.403   -52.403     0.000     (0)  
S(-2)         4.708e-20
   H2S             3.544e-20   3.544e-20   -19.450   -19.450     0.000     (0)  
   HS-             1.110e-20   1.109e-20   -19.955   -19.955    -0.001     (0)  
   S5-2            6.891e-23   6.853e-23   -22.162   -22.164    -0.002     (0)  
   S4-2            4.605e-23   4.580e-23   -22.337   -22.339    -0.002     (0)  
   S6-2            1.521e-24   1.513e-24   -23.818   -23.820    -0.002     (0)  
   S-2             8.468e-26   8.422e-26   -25.072   -25.075    -0.002     (0)  
   S3-2            2.057e-26   2.046e-26   -25.687   -25.689    -0.002     (0)  
   S2-2            1.639e-27   1.630e-27   -26.785   -26.788    -0.002     (0)  
   Fe(HS)2         0.000e+00   0.000e+00   -41.595   -41.595     0.000     (0)  
   Fe(HS)3-        0.000e+00   0.000e+00   -59.512   -59.513    -0.001     (0)  
S(6)          8.000e-12
   SO4-2           7.993e-12   7.949e-12   -11.097   -11.100    -0.002     (0)  
   HSO4-           7.444e-15   7.434e-15   -14.128   -14.129    -0.001     (0)  
   FeSO4           9.811e-20   9.811e-20   -19.008   -19.008     0.000     (0)  
   FeSO4+          4.392e-32   4.386e-32   -31.357   -31.358    -0.001     (0)  
   Fe(SO4)2-       0.000e+00   0.000e+00   -40.855   -40.856    -0.001     (0)  

------------------------------Saturation indices-------------------------------

  Phase               SI** log IAP   log K(373 K,   1 atm)

  Fe2(SO4)3       -77.68    -82.81   -5.13  Fe2(SO4)3
  Fe3(OH)8        -32.24    -12.02   20.22  Fe3(OH)8
  Ferrihydrite    -11.60     -6.71    4.89  Fe(OH)3
  FeS(ppt)        -20.66    -24.57   -3.92  FeS
  Goethite         -5.07     -6.71   -1.63  FeOOH
  Greigite        -79.72    -89.82  -10.10  Fe3S4
  Hematite         -4.86    -13.41   -8.55  Fe2O3
  Jarosite-H      -46.16    -66.38  -20.22  (H3O)Fe3(SO4)2(OH)6
  Lepidocrocite    -8.08     -6.71    1.37  FeOOH
  Mackinawite     -21.59    -18.05    3.54  FeS
  Maghemite       -19.80    -13.41    6.39  Fe2O3
  Magnetite        -8.32    -12.02   -3.70  Fe3O4
  Melanterite     -19.69    -21.73   -2.05  FeSO4:7H2O
  O2(g)           -49.58     13.82   63.40  O2
  pe_fix            2.56      2.56    0.00  e-
  pH_fix           -6.02     -6.02    0.00  H+
  Pyrite          -27.83    -53.71  -25.88  FeS2
  Pyrrhotite      -20.62    -18.05    2.57  FeS
  Sulfur          -16.33    -19.06   -2.73  S

**For a gas, SI = log10(fugacity). Fugacity = pressure * phi / 1 atm.
  For ideal gases, phi = 1.

Reaction step 9.

Using solution 1.	PURE WATER
Using pure phase assemblage 1.	
Using reaction 1.	

Reaction 1.	

	  1.000e-12 moles of the following reaction have been added:

	                 Relative
	Reactant            moles

	Fe3S1                1.00000

	                 Relative
	Element             moles
	Fe                   3.00000
	S                    1.00000

-------------------------------Phase assemblage--------------------------------

                                                      Moles in assemblage
Phase               SI  log IAP  log K(T, P)   Initial       Final       Delta

Greigite        -78.59   -88.69    -10.10    0.000e+00           0   0.000e+00
Mackinawite     -21.28   -17.75      3.54    0.000e+00           0   0.000e+00
Pyrite          -27.32   -53.20    -25.88    0.000e+00           0   0.000e+00
Pyrrhotite      -20.31   -17.75      2.57    0.000e+00           0   0.000e+00

-----------------------------Solution composition------------------------------

	Elements           Molality       Moles

	Fe                2.700e-11   2.700e-11
	S                 9.000e-12   9.000e-12

----------------------------Description of solution----------------------------

                                       pH  =   6.016      Charge balance
                                       pe  =  -2.587      Adjusted to redox equilibrium
                        Activity of water  =   1.000
                 Ionic strength (mol/kgw)  =   9.652e-07
                       Mass of water (kg)  =   1.000e+00
                 Total alkalinity (eq/kg)  =   3.600e-11
                         Temperature (°C)  = 100.00
                  Electrical balance (eq)  =   1.655e-18
 Percent error, 100*(Cat-|An|)/(Cat+|An|)  =   0.00
                               Iterations  =   3
                                  Total H  = 1.110124e+02
                                  Total O  = 5.550622e+01

----------------------------Distribution of species----------------------------

                                               Log       Log       Log    mole V
   Species          Molality    Activity  Molality  Activity     Gamma    cm³/mol

   OH-             9.652e-07   9.639e-07    -6.015    -6.016    -0.001     (0)  
   H+              9.652e-07   9.639e-07    -6.015    -6.016    -0.001      0.00
   H2O             5.551e+01   1.000e+00     1.744    -0.000     0.000     18.80
Fe(2)         2.700e-11
   Fe+2            2.624e-11   2.610e-11   -10.581   -10.583    -0.002     (0)  
   FeOH+           7.547e-13   7.537e-13   -12.122   -12.123    -0.001     (0)  
   Fe(OH)2         1.222e-15   1.222e-15   -14.913   -14.913     0.000     (0)  
   FeSO4           1.242e-19   1.242e-19   -18.906   -18.906     0.000     (0)  
   Fe(OH)3-        8.495e-20   8.483e-20   -19.071   -19.071    -0.001     (0)  
   Fe(HS)2         0.000e+00   0.000e+00   -41.032   -41.032     0.000     (0)  
   Fe(HS)3-        0.000e+00   0.000e+00   -58.693   -58.694    -0.001     (0)  
Fe(3)         4.784e-19
   Fe(OH)2+        4.303e-19   4.298e-19   -18.366   -18.367    -0.001     (0)  
   FeOH+2          4.282e-20   4.258e-20   -19.368   -19.371    -0.002     (0)  
   Fe(OH)3         5.239e-21   5.239e-21   -20.281   -20.281     0.000     (0)  
   Fe(OH)4-        5.442e-23   5.435e-23   -22.264   -22.265    -0.001     (0)  
   Fe+3            1.890e-25   1.867e-25   -24.723   -24.729    -0.005     (0)  
   FeSO4+          5.240e-32   5.233e-32   -31.281   -31.281    -0.001     (0)  
   Fe2(OH)2+4      4.195e-39   4.105e-39   -38.377   -38.387    -0.009     (0)  
   Fe(SO4)2-       0.000e+00   0.000e+00   -40.728   -40.728    -0.001     (0)  
   Fe3(OH)4+5      0.000e+00   0.000e+00   -54.301   -54.316    -0.015     (0)  
H(0)          1.080e-10
   H2              5.398e-11   5.398e-11   -10.268   -10.268     0.000     (0)  
O(0)          0.000e+00
   O2              0.000e+00   0.000e+00   -52.505   -52.505     0.000     (0)  
S(-2)         8.491e-20
   H2S             6.392e-20   6.392e-20   -19.194   -19.194     0.000     (0)  
   HS-             2.002e-20   1.999e-20   -19.699   -19.699    -0.001     (0)  
   S5-2            1.243e-22   1.236e-22   -21.906   -21.908    -0.002     (0)  
   S4-2            8.304e-23   8.259e-23   -22.081   -22.083    -0.002     (0)  
   S6-2            2.743e-24   2.728e-24   -23.562   -23.564    -0.002     (0)  
   S-2             1.527e-25   1.519e-25   -24.816   -24.818    -0.002     (0)  
   S3-2            3.710e-26   3.690e-26   -25.431   -25.433    -0.002     (0)  
   S2-2            2.956e-27   2.940e-27   -26.529   -26.532    -0.002     (0)  
   Fe(HS)2         0.000e+00   0.000e+00   -41.032   -41.032     0.000     (0)  
   Fe(HS)3-        0.000e+00   0.000e+00   -58.693   -58.694    -0.001     (0)  
S(6)          9.000e-12
   SO4-2           8.992e-12   8.943e-12   -11.046   -11.049    -0.002     (0)  
   HSO4-           8.374e-15   8.363e-15   -14.077   -14.078    -0.001     (0)  
   FeSO4           1.242e-19   1.242e-19   -18.906   -18.906     0.000     (0)  
   FeSO4+          5.240e-32   5.233e-32   -31.281   -31.281    -0.001     (0)  
   Fe(SO4)2-       0.000e+00   0.000e+00   -40.728   -40.728    -0.001     (0)  

------------------------------Saturation indices-------------------------------

  Phase               SI** log IAP   log K(373 K,   1 atm)

  Fe2(SO4)3       -77.47    -82.60   -5.13  Fe2(SO4)3
  Fe3(OH)8        -32.13    -11.91   20.22  Fe3(OH)8
  Ferrihydrite    -11.57     -6.68    4.89  Fe(OH)3
  FeS(ppt)        -20.35    -24.27   -3.92  FeS
  Goethite         -5.05     -6.68   -1.63  FeOOH
  Greigite        -78.59    -88.69  -10.10  Fe3S4
  Hematite         -4.81    -13.36   -8.55  Fe2O3
  Jarosite-H      -45.98    -66.20  -20.22  (H3O)Fe3(SO4)2(OH)6
  Lepidocrocite    -8.05     -6.68    1.37  FeOOH
  Mackinawite     -21.28    -17.75    3.54  FeS
  Maghemite       -19.75    -13.36    6.39  Fe2O3
  Magnetite        -8.22    -11.91   -3.70  Fe3O4
  Melanterite     -19.58    -21.63   -2.05  FeSO4:7H2O
  O2(g)           -49.69     13.72   63.40  O2
  pe_fix            2.59      2.59    0.00  e-
  pH_fix           -6.02     -6.02    0.00  H+
  Pyrite          -27.32    -53.20  -25.88  FeS2
  Pyrrhotite      -20.31    -17.75    2.57  FeS
  Sulfur          -16.13    -18.86   -2.73  S

**For a gas, SI = log10(fugacity). Fugacity = pressure * phi / 1 atm.
  For ideal gases, phi = 1.

Reaction step 10.

Using solution 1.	PURE WATER
Using pure phase assemblage 1.	
Using reaction 1.	

Reaction 1.	

	  1.000e-12 moles of the following reaction have been added:

	                 Relative
	Reactant            moles

	Fe3S1                1.00000

	                 Relative
	Element             moles
	Fe                   3.00000
	S                    1.00000

-------------------------------Phase assemblage--------------------------------

                                                      Moles in assemblage
Phase               SI  log IAP  log K(T, P)   Initial       Final       Delta

Greigite        -77.59   -87.68    -10.10    0.000e+00           0   0.000e+00
Mackinawite     -21.01   -17.47      3.54    0.000e+00           0   0.000e+00
Pyrite          -26.86   -52.74    -25.88    0.000e+00           0   0.000e+00
Pyrrhotite      -20.04   -17.47      2.57    0.000e+00           0   0.000e+00

-----------------------------Solution composition------------------------------

	Elements           Molality       Moles

	Fe                3.000e-11   3.000e-11
	S                 1.000e-11   1.000e-11

----------------------------Description of solution----------------------------

                                       pH  =   6.016      Charge balance
                                       pe  =  -2.610      Adjusted to redox equilibrium
                        Activity of water  =   1.000
                 Ionic strength (mol/kgw)  =   9.653e-07
                       Mass of water (kg)  =   1.000e+00
                 Total alkalinity (eq/kg)  =   4.000e-11
                         Temperature (°C)  = 100.00
                  Electrical balance (eq)  =   1.661e-18
 Percent error, 100*(Cat-|An|)/(Cat+|An|)  =   0.00
                               Iterations  =   3
                                  Total H  = 1.110124e+02
                                  Total O  = 5.550622e+01

----------------------------Distribution of species----------------------------

                                               Log       Log       Log    mole V
   Species          Molality    Activity  Molality  Activity     Gamma    cm³/mol

   OH-             9.652e-07   9.639e-07    -6.015    -6.016    -0.001     (0)  
   H+              9.652e-07   9.638e-07    -6.015    -6.016    -0.001      0.00
   H2O             5.551e+01   1.000e+00     1.744    -0.000     0.000     18.80
Fe(2)         3.000e-11
   Fe+2            2.916e-11   2.900e-11   -10.535   -10.538    -0.002     (0)  
   FeOH+           8.386e-13   8.374e-13   -12.076   -12.077    -0.001     (0)  
   Fe(OH)2         1.357e-15   1.357e-15   -14.867   -14.867     0.000     (0)  
   FeSO4           1.533e-19   1.533e-19   -18.814   -18.814     0.000     (0)  
   Fe(OH)3-        9.439e-20   9.426e-20   -19.025   -19.026    -0.001     (0)  
   Fe(HS)2         0.000e+00   0.000e+00   -40.528   -40.528     0.000     (0)  
   Fe(HS)3-        0.000e+00   0.000e+00   -57.961   -57.961    -0.001     (0)  
Fe(3)         5.043e-19
   Fe(OH)2+        4.536e-19   4.530e-19   -18.343   -18.344    -0.001     (0)  
   FeOH+2          4.513e-20   4.489e-20   -19.346   -19.348    -0.002     (0)  
   Fe(OH)3         5.522e-21   5.522e-21   -20.258   -20.258     0.000     (0)  
   Fe(OH)4-        5.737e-23   5.729e-23   -22.241   -22.242    -0.001     (0)  
   Fe+3            1.993e-25   1.968e-25   -24.701   -24.706    -0.005     (0)  
   FeSO4+          6.137e-32   6.129e-32   -31.212   -31.213    -0.001     (0)  
   Fe2(OH)2+4      4.661e-39   4.561e-39   -38.332   -38.341    -0.009     (0)  
   Fe(SO4)2-       0.000e+00   0.000e+00   -40.613   -40.614    -0.001     (0)  
   Fe3(OH)4+5      0.000e+00   0.000e+00   -54.232   -54.247    -0.015     (0)  
H(0)          1.200e-10
   H2              5.998e-11   5.998e-11   -10.222   -10.222     0.000     (0)  
O(0)          0.000e+00
   O2              0.000e+00   0.000e+00   -52.597   -52.597     0.000     (0)  
S(-2)         1.438e-19
   H2S             1.083e-19   1.083e-19   -18.966   -18.966     0.000     (0)  
   HS-             3.391e-20   3.387e-20   -19.470   -19.470    -0.001     (0)  
   S5-2            2.105e-22   2.093e-22   -21.677   -21.679    -0.002     (0)  
   S4-2            1.407e-22   1.399e-22   -21.852   -21.854    -0.002     (0)  
   S6-2            4.646e-24   4.621e-24   -23.333   -23.335    -0.002     (0)  
   S-2             2.587e-25   2.573e-25   -24.587   -24.590    -0.002     (0)  
   S3-2            6.285e-26   6.251e-26   -25.202   -25.204    -0.002     (0)  
   S2-2            5.007e-27   4.980e-27   -26.300   -26.303    -0.002     (0)  
   Fe(HS)2         0.000e+00   0.000e+00   -40.528   -40.528     0.000     (0)  
   Fe(HS)3-        0.000e+00   0.000e+00   -57.961   -57.961    -0.001     (0)  
S(6)          1.000e-11
   SO4-2           9.991e-12   9.937e-12   -11.000   -11.003    -0.002     (0)  
   HSO4-           9.305e-15   9.292e-15   -14.031   -14.032    -0.001     (0)  
   FeSO4           1.533e-19   1.533e-19   -18.814   -18.814     0.000     (0)  
   FeSO4+          6.137e-32   6.129e-32   -31.212   -31.213    -0.001     (0)  
   Fe(SO4)2-       0.000e+00   0.000e+00   -40.613   -40.614    -0.001     (0)  

------------------------------Saturation indices-------------------------------

  Phase               SI** log IAP   log K(373 K,   1 atm)

  Fe2(SO4)3       -77.29    -82.42   -5.13  Fe2(SO4)3
  Fe3(OH)8        -32.04    -11.82   20.22  Fe3(OH)8
  Ferrihydrite    -11.55     -6.66    4.89  Fe(OH)3
  FeS(ppt)        -20.08    -23.99   -3.92  FeS
  Goethite         -5.02     -6.66   -1.63  FeOOH
  Greigite        -77.59    -87.68  -10.10  Fe3S4
  Hematite         -4.76    -13.32   -8.55  Fe2O3
  Jarosite-H      -45.82    -66.04  -20.22  (H3O)Fe3(SO4)2(OH)6
  Lepidocrocite    -8.03     -6.66    1.37  FeOOH
  Mackinawite     -21.01    -17.47    3.54  FeS
  Maghemite       -19.70    -13.32    6.39  Fe2O3
  Magnetite        -8.12    -11.82   -3.70  Fe3O4
  Melanterite     -19.49    -21.54   -2.05  FeSO4:7H2O
  O2(g)           -49.78     13.63   63.40  O2
  pe_fix            2.61      2.61    0.00  e-
  pH_fix           -6.02     -6.02    0.00  H+
  Pyrite          -26.86    -52.74  -25.88  FeS2
  Pyrrhotite      -20.04    -17.47    2.57  FeS
  Sulfur          -15.94    -18.67   -2.73  S

**For a gas, SI = log10(fugacity). Fugacity = pressure * phi / 1 atm.
  For ideal gases, phi = 1.

Reaction step 11.

Using solution 1.	PURE WATER
Using pure phase assemblage 1.	
Using reaction 1.	

Reaction 1.	

	  1.000e-11 moles of the following reaction have been added:

	                 Relative
	Reactant            moles

	Fe3S1                1.00000

	                 Relative
	Element             moles
	Fe                   3.00000
	S                    1.00000

-------------------------------Phase assemblage--------------------------------

                                                      Moles in assemblage
Phase               SI  log IAP  log K(T, P)   Initial       Final       Delta

Greigite        -70.96   -81.06    -10.10    0.000e+00           0   0.000e+00
Mackinawite     -19.20   -15.66      3.54    0.000e+00           0   0.000e+00
Pyrite          -23.85   -49.73    -25.88    0.000e+00           0   0.000e+00
Pyrrhotite      -18.23   -15.66      2.57    0.000e+00           0   0.000e+00

-----------------------------Solution composition------------------------------

	Elements           Molality       Moles

	Fe                6.000e-11   6.000e-11
	S                 2.000e-11   2.000e-11

----------------------------Description of solution----------------------------

                                       pH  =   6.016      Charge balance
                                       pe  =  -2.760      Adjusted to redox equilibrium
                        Activity of water  =   1.000
                 Ionic strength (mol/kgw)  =   9.653e-07
                       Mass of water (kg)  =   1.000e+00
                 Total alkalinity (eq/kg)  =   8.000e-11
                         Temperature (°C)  = 100.00
                  Electrical balance (eq)  =   1.660e-18
 Percent error, 100*(Cat-|An|)/(Cat+|An|)  =   0.00
                               Iterations  =   5
                                  Total H  = 1.110124e+02
                                  Total O  = 5.550622e+01

----------------------------Distribution of species----------------------------

                                               Log       Log       Log    mole V
   Species          Molality    Activity  Molality  Activity     Gamma    cm³/mol

   OH-             9.652e-07   9.639e-07    -6.015    -6.016    -0.001     (0)  
   H+              9.651e-07   9.638e-07    -6.015    -6.016    -0.001      0.00
   H2O             5.551e+01   1.000e+00     1.744    -0.000     0.000     18.80
Fe(2)         6.000e-11
   Fe+2            5.832e-11   5.800e-11   -10.234   -10.237    -0.002     (0)  
   FeOH+           1.677e-12   1.675e-12   -11.775   -11.776    -0.001     (0)  
   Fe(OH)2         2.715e-15   2.715e-15   -14.566   -14.566     0.000     (0)  
   FeSO4           6.132e-19   6.132e-19   -18.212   -18.212     0.000     (0)  
   Fe(OH)3-        1.888e-19   1.885e-19   -18.724   -18.725    -0.001     (0)  
   Fe(HS)2         6.083e-38   6.083e-38   -37.216   -37.216     0.000     (0)  
   Fe(HS)3-        0.000e+00   0.000e+00   -53.143   -53.144    -0.001     (0)  
Fe(3)         7.131e-19
   Fe(OH)2+        6.414e-19   6.406e-19   -18.193   -18.193    -0.001     (0)  
   FeOH+2          6.382e-20   6.347e-20   -19.195   -19.197    -0.002     (0)  
   Fe(OH)3         7.808e-21   7.808e-21   -20.107   -20.107     0.000     (0)  
   Fe(OH)4-        8.112e-23   8.102e-23   -22.091   -22.091    -0.001     (0)  
   Fe+3            2.817e-25   2.783e-25   -24.550   -24.555    -0.005     (0)  
   FeSO4+          1.736e-31   1.733e-31   -30.761   -30.761    -0.001     (0)  
   Fe2(OH)2+4      9.320e-39   9.120e-39   -38.031   -38.040    -0.009     (0)  
   Fe(SO4)2-       1.378e-40   1.377e-40   -39.861   -39.861    -0.001     (0)  
   Fe3(OH)4+5      0.000e+00   0.000e+00   -53.781   -53.796    -0.015     (0)  
H(0)          2.400e-10
   H2              1.200e-10   1.200e-10    -9.921    -9.921     0.000     (0)  
O(0)          0.000e+00
   O2              0.000e+00   0.000e+00   -53.199   -53.199     0.000     (0)  
S(-2)         4.606e-18
   H2S             3.468e-18   3.468e-18   -17.460   -17.460     0.000     (0)  
   HS-             1.086e-18   1.085e-18   -17.964   -17.965    -0.001     (0)  
   S5-2            6.742e-21   6.705e-21   -20.171   -20.174    -0.002     (0)  
   S4-2            4.505e-21   4.481e-21   -20.346   -20.349    -0.002     (0)  
   S6-2            1.488e-22   1.480e-22   -21.827   -21.830    -0.002     (0)  
   S-2             8.285e-24   8.240e-24   -23.082   -23.084    -0.002     (0)  
   S3-2            2.013e-24   2.002e-24   -23.696   -23.699    -0.002     (0)  
   S2-2            1.604e-25   1.595e-25   -24.795   -24.797    -0.002     (0)  
   Fe(HS)2         6.083e-38   6.083e-38   -37.216   -37.216     0.000     (0)  
   Fe(HS)3-        0.000e+00   0.000e+00   -53.143   -53.144    -0.001     (0)  
S(6)          2.000e-11
   SO4-2           1.998e-11   1.987e-11   -10.699   -10.702    -0.002     (0)  
   HSO4-           1.861e-14   1.858e-14   -13.730   -13.731    -0.001     (0)  
   FeSO4           6.132e-19   6.132e-19   -18.212   -18.212     0.000     (0)  
   FeSO4+          1.736e-31   1.733e-31   -30.761   -30.761    -0.001     (0)  
   Fe(SO4)2-       1.378e-40   1.377e-40   -39.861   -39.861    -0.001     (0)  

------------------------------Saturation indices-------------------------------

  Phase               SI** log IAP   log K(373 K,   1 atm)

  Fe2(SO4)3       -76.09    -81.22   -5.13  Fe2(SO4)3
  Fe3(OH)8        -31.44    -11.22   20.22  Fe3(OH)8
  Ferrihydrite    -11.40     -6.51    4.89  Fe(OH)3
  FeS(ppt)        -18.27    -22.19   -3.92  FeS
  Goethite         -4.87     -6.51   -1.63  FeOOH
  Greigite        -70.96    -81.06  -10.10  Fe3S4
  Hematite         -4.46    -13.01   -8.55  Fe2O3
  Jarosite-H      -44.76    -64.99  -20.22  (H3O)Fe3(SO4)2(OH)6
  Lepidocrocite    -7.88     -6.51    1.37  FeOOH
  Mackinawite     -19.20    -15.66    3.54  FeS
  Maghemite       -19.40    -13.01    6.39  Fe2O3
  Magnetite        -7.52    -11.22   -3.70  Fe3O4
  Melanterite     -18.89    -20.94   -2.05  FeSO4:7H2O
  O2(g)           -50.38     13.02   63.40  O2
  pe_fix            2.76      2.76    0.00  e-
  pH_fix           -6.02     -6.02    0.00  H+
  Pyrite          -23.85    -49.73  -25.88  FeS2
  Pyrrhotite      -18.23    -15.66    2.57  FeS
  Sulfur          -14.74    -17.47   -2.73  S

**For a gas, SI = log10(fugacity). Fugacity = pressure * phi / 1 atm.
  For ideal gases, phi = 1.

Reaction step 12.

Using solution 1.	PURE WATER
Using pure phase assemblage 1.	
Using reaction 1.	

Reaction 1.	

	  1.000e-11 moles of the following reaction have been added:

	                 Relative
	Reactant            moles

	Fe3S1                1.00000

	                 Relative
	Element             moles
	Fe                   3.00000
	S                    1.00000

-------------------------------Phase assemblage--------------------------------

                                                      Moles in assemblage
Phase               SI  log IAP  log K(T, P)   Initial       Final       Delta

Greigite        -67.09   -77.19    -10.10    0.000e+00           0   0.000e+00
Mackinawite     -18.15   -14.61      3.54    0.000e+00           0   0.000e+00
Pyrite          -22.09   -47.97    -25.88    0.000e+00           0   0.000e+00
Pyrrhotite      -17.17   -14.61      2.57    0.000e+00           0   0.000e+00

-----------------------------Solution composition------------------------------

	Elements           Molality       Moles

	Fe                9.000e-11   9.000e-11
	S                 3.000e-11   3.000e-11

----------------------------Description of solution----------------------------

                                       pH  =   6.016      Charge balance
                                       pe  =  -2.848      Adjusted to redox equilibrium
                        Activity of water  =   1.000
                 Ionic strength (mol/kgw)  =   9.654e-07
                       Mass of water (kg)  =   1.000e+00
[...]
  For ideal gases, phi = 1.

Reaction step 108.

Using solution 1.	PURE WATER
Using pure phase assemblage 1.	
Using reaction 1.	

Reaction 1.	

	  1.000e-02 moles of the following reaction have been added:

	                 Relative
	Reactant            moles

	Fe3S1                1.00000

	                 Relative
	Element             moles
	Fe                   3.00000
	S                    1.00000

-------------------------------Phase assemblage--------------------------------

                                                      Moles in assemblage
Phase               SI  log IAP  log K(T, P)   Initial       Final       Delta

Greigite        -20.89   -30.98    -10.10    0.000e+00           0   0.000e+00
Mackinawite      -0.97     2.57      3.54    0.000e+00           0   0.000e+00
Pyrite          -10.23   -36.11    -25.88    0.000e+00           0   0.000e+00
Pyrrhotite        0.00     2.57      2.57    8.111e-02   9.111e-02   1.000e-02

-----------------------------Solution composition------------------------------

	Elements           Molality       Moles

	Fe                1.834e-01   1.822e-01
	S                 3.675e-08   3.651e-08

----------------------------Description of solution----------------------------

                                       pH  =   9.478      Charge balance
                                       pe  = -10.816      Adjusted to redox equilibrium
                        Activity of water  =   0.994
                 Ionic strength (mol/kgw)  =   3.374e-02
                       Mass of water (kg)  =   9.934e-01
                 Total alkalinity (eq/kg)  =   3.669e-01
                         Temperature (°C)  = 100.00
                  Electrical balance (eq)  =  -3.704e-11
 Percent error, 100*(Cat-|An|)/(Cat+|An|)  =  -0.00
                               Iterations  =   5
                                  Total H  = 1.110124e+02
                                  Total O  = 5.550622e+01

----------------------------Distribution of species----------------------------

                                               Log       Log       Log    mole V
   Species          Molality    Activity  Molality  Activity     Gamma    cm³/mol

   OH-             3.418e-03   2.776e-03    -2.466    -2.557    -0.090     (0)  
   H+              3.910e-10   3.325e-10    -9.408    -9.478    -0.070      0.00
   H2O             5.551e+01   9.937e-01     1.744    -0.003     0.000     18.80
Fe(2)         1.834e-01
   Fe(OH)2         1.213e-01   1.223e-01    -0.916    -0.913     0.003     (0)  
   FeOH+           3.177e-02   2.619e-02    -1.498    -1.582    -0.084     (0)  
   Fe(OH)3-        2.967e-02   2.446e-02    -1.528    -1.612    -0.084     (0)  
   Fe+2            6.581e-04   3.149e-04    -3.182    -3.502    -0.320     (0)  
   Fe(HS)2         3.835e-15   3.865e-15   -14.416   -14.413     0.003     (0)  
   Fe(HS)3-        6.036e-23   4.940e-23   -22.219   -22.306    -0.087     (0)  
   FeSO4           1.793e-37   1.807e-37   -36.747   -36.743     0.003     (0)  
Fe(3)         3.307e-10
   Fe(OH)4-        3.216e-10   2.661e-10    -9.493    -9.575    -0.082     (0)  
   Fe(OH)3         8.835e-12   8.903e-12   -11.054   -11.050     0.003     (0)  
   Fe(OH)2+        3.065e-13   2.536e-13   -12.514   -12.596    -0.082     (0)  
   FeOH+2          1.889e-17   8.723e-18   -16.724   -17.059    -0.335     (0)  
   Fe+3            5.712e-26   1.328e-26   -25.243   -25.877    -0.634     (0)  
   Fe2(OH)2+4      4.256e-33   1.723e-34   -32.371   -33.764    -1.393     (0)  
   Fe3(OH)4+5      0.000e+00   0.000e+00   -41.746   -43.922    -2.176     (0)  
   FeSO4+          0.000e+00   0.000e+00   -57.264   -57.348    -0.084     (0)  
   Fe(SO4)2-       0.000e+00   0.000e+00   -91.626   -91.713    -0.087     (0)  
H(0)          3.669e-01
   H2              1.834e-01   1.849e-01    -0.737    -0.733     0.003     (0)  
O(0)          0.000e+00
   O2              0.000e+00   0.000e+00   -71.583   -71.580     0.003     (0)  
S(-2)         3.675e-08
   S5-2            4.688e-09   2.103e-09    -8.329    -8.677    -0.348     (0)  
   S4-2            3.133e-09   1.405e-09    -8.504    -8.852    -0.348     (0)  
   HS-             1.445e-10   1.174e-10    -9.840    -9.930    -0.090     (0)  
   S6-2            1.035e-10   4.642e-11    -9.985   -10.333    -0.348     (0)  
   S-2             5.595e-12   2.584e-12   -11.252   -11.588    -0.335     (0)  
   S3-2            1.400e-12   6.279e-13   -11.854   -12.202    -0.348     (0)  
   H2S             1.284e-13   1.294e-13   -12.891   -12.888     0.003     (0)  
   S2-2            1.115e-13   5.002e-14   -12.953   -13.301    -0.348     (0)  
   Fe(HS)2         3.835e-15   3.865e-15   -14.416   -14.413     0.003     (0)  
   Fe(HS)3-        6.036e-23   4.940e-23   -22.219   -22.306    -0.087     (0)  
S(6)          2.614e-36
   SO4-2           2.435e-36   1.079e-36   -35.613   -35.967    -0.354     (0)  
   FeSO4           1.793e-37   1.807e-37   -36.747   -36.743     0.003     (0)  
   HSO4-           0.000e+00   0.000e+00   -42.373   -42.458    -0.086     (0)  
   FeSO4+          0.000e+00   0.000e+00   -57.264   -57.348    -0.084     (0)  
   Fe(SO4)2-       0.000e+00   0.000e+00   -91.626   -91.713    -0.087     (0)  

------------------------------Saturation indices-------------------------------

  Phase               SI** log IAP   log K(373 K,   1 atm)

  Fe2(SO4)3      -154.53   -159.65   -5.13  Fe2(SO4)3
  Fe3(OH)8          0.33     20.55   20.22  Fe3(OH)8
  Ferrihydrite     -2.34      2.55    4.89  Fe(OH)3
  FeS(ppt)         -0.04     -3.95   -3.92  FeS
  Goethite          4.19      2.55   -1.63  FeOOH
  Greigite        -20.89    -30.98  -10.10  Fe3S4
  Hematite         13.66      5.11   -8.55  Fe2O3
  Jarosite-H      -81.97   -102.19  -20.22  (H3O)Fe3(SO4)2(OH)6
  Lepidocrocite     1.18      2.55    1.37  FeOOH
  Mackinawite      -0.97      2.57    3.54  FeS
  Maghemite        -1.28      5.11    6.39  Fe2O3
  Magnetite        24.26     20.56   -3.70  Fe3O4
  Melanterite     -37.44    -39.49   -2.05  FeSO4:7H2O
  O2(g)           -68.76     -5.36   63.40  O2
  pe_fix           10.82     10.82    0.00  e-
  pH_fix           -9.48     -9.48    0.00  H+
  Pyrite          -10.23    -36.11  -25.88  FeS2
  Pyrrhotite        0.00      2.57    2.57  FeS
  Sulfur          -19.36    -22.08   -2.73  S

**For a gas, SI = log10(fugacity). Fugacity = pressure * phi / 1 atm.
  For ideal gases, phi = 1.

Reaction step 109.

Using solution 1.	PURE WATER
Using pure phase assemblage 1.	
Using reaction 1.	

Reaction 1.	

	  1.000e-02 moles of the following reaction have been added:

	                 Relative
	Reactant            moles

	Fe3S1                1.00000

	                 Relative
	Element             moles
	Fe                   3.00000
	S                    1.00000

-------------------------------Phase assemblage--------------------------------

                                                      Moles in assemblage
Phase               SI  log IAP  log K(T, P)   Initial       Final       Delta

Greigite        -20.98   -31.07    -10.10    0.000e+00           0   0.000e+00
Mackinawite      -0.97     2.57      3.54    0.000e+00           0   0.000e+00
Pyrite          -10.32   -36.21    -25.88    0.000e+00           0   0.000e+00
Pyrrhotite        0.00     2.57      2.57    9.111e-02   1.011e-01   1.000e-02

-----------------------------Solution composition------------------------------

	Elements           Molality       Moles

	Fe                2.037e-01   2.022e-01
	S                 3.463e-08   3.438e-08

----------------------------Description of solution----------------------------

                                       pH  =   9.481      Charge balance
                                       pe  = -10.842      Adjusted to redox equilibrium
                        Activity of water  =   0.993
                 Ionic strength (mol/kgw)  =   3.753e-02
                       Mass of water (kg)  =   9.927e-01
                 Total alkalinity (eq/kg)  =   4.074e-01
                         Temperature (°C)  = 100.00
                  Electrical balance (eq)  =  -3.704e-11
 Percent error, 100*(Cat-|An|)/(Cat+|An|)  =  -0.00
                               Iterations  =   6
                                  Total H  = 1.110124e+02
                                  Total O  = 5.550622e+01

----------------------------Distribution of species----------------------------

                                               Log       Log       Log    mole V
   Species          Molality    Activity  Molality  Activity     Gamma    cm³/mol

   OH-             3.468e-03   2.791e-03    -2.460    -2.554    -0.094     (0)  
   H+              3.908e-10   3.305e-10    -9.408    -9.481    -0.073      0.00
   H2O             5.551e+01   9.930e-01     1.744    -0.003     0.000     18.80
Fe(2)         2.037e-01
   Fe(OH)2         1.343e-01   1.355e-01    -0.872    -0.868     0.004     (0)  
   FeOH+           3.530e-02   2.887e-02    -1.452    -1.540    -0.087     (0)  
   Fe(OH)3-        3.332e-02   2.725e-02    -1.477    -1.565    -0.087     (0)  
   Fe+2            7.427e-04   3.453e-04    -3.129    -3.462    -0.333     (0)  
   Fe(HS)2         3.453e-15   3.483e-15   -14.462   -14.458     0.004     (0)  
   Fe(HS)3-        4.971e-23   4.035e-23   -22.304   -22.394    -0.091     (0)  
   FeSO4           1.170e-37   1.180e-37   -36.932   -36.928     0.004     (0)  
Fe(3)         3.518e-10
   Fe(OH)4-        3.422e-10   2.810e-10    -9.466    -9.551    -0.086     (0)  
   Fe(OH)3         9.272e-12   9.353e-12   -11.033   -11.029     0.004     (0)  
   Fe(OH)2+        3.227e-13   2.650e-13   -12.491   -12.577    -0.086     (0)  
   FeOH+2          2.026e-17   9.066e-18   -16.693   -17.043    -0.349     (0)  
   Fe+3            6.207e-26   1.373e-26   -25.207   -25.862    -0.655     (0)  
   Fe2(OH)2+4      5.245e-33   1.861e-34   -32.280   -33.730    -1.450     (0)  
   Fe3(OH)4+5      0.000e+00   0.000e+00   -41.604   -43.869    -2.266     (0)  
   FeSO4+          0.000e+00   0.000e+00   -57.471   -57.558    -0.087     (0)  
   Fe(SO4)2-       0.000e+00   0.000e+00   -92.058   -92.149    -0.091     (0)  
H(0)          4.074e-01
   H2              2.037e-01   2.055e-01    -0.691    -0.687     0.004     (0)  
O(0)          0.000e+00
   O2              0.000e+00   0.000e+00   -71.676   -71.672     0.004     (0)  
S(-2)         3.463e-08
   S5-2            4.419e-09   1.918e-09    -8.355    -8.717    -0.363     (0)  
   S4-2            2.953e-09   1.282e-09    -8.530    -8.892    -0.363     (0)  
   HS-             1.322e-10   1.064e-10    -9.879    -9.973    -0.094     (0)  
   S6-2            9.754e-11   4.233e-11   -10.011   -10.373    -0.363     (0)  
   S-2             5.266e-12   2.357e-12   -11.278   -11.628    -0.349     (0)  
   S3-2            1.319e-12   5.726e-13   -11.880   -12.242    -0.363     (0)  
   H2S             1.156e-13   1.166e-13   -12.937   -12.933     0.004     (0)  
   S2-2            1.051e-13   4.562e-14   -12.978   -13.341    -0.363     (0)  
   Fe(HS)2         3.453e-15   3.483e-15   -14.462   -14.458     0.004     (0)  
   Fe(HS)3-        4.971e-23   4.035e-23   -22.304   -22.394    -0.091     (0)  
S(6)          1.620e-36
   SO4-2           1.503e-36   6.426e-37   -35.823   -36.192    -0.369     (0)  
   FeSO4           1.170e-37   1.180e-37   -36.932   -36.928     0.004     (0)  
   HSO4-           0.000e+00   0.000e+00   -42.596   -42.686    -0.090     (0)  
   FeSO4+          0.000e+00   0.000e+00   -57.471   -57.558    -0.087     (0)  
   Fe(SO4)2-       0.000e+00   0.000e+00   -92.058   -92.149    -0.091     (0)  

------------------------------Saturation indices-------------------------------

  Phase               SI** log IAP   log K(373 K,   1 atm)

  Fe2(SO4)3      -155.17   -160.30   -5.13  Fe2(SO4)3
  Fe3(OH)8          0.41     20.64   20.22  Fe3(OH)8
  Ferrihydrite     -2.32      2.57    4.89  Fe(OH)3
  FeS(ppt)         -0.04     -3.95   -3.92  FeS
  Goethite          4.21      2.57   -1.63  FeOOH
  Greigite        -20.98    -31.07  -10.10  Fe3S4
  Hematite         13.70      5.15   -8.55  Fe2O3
  Jarosite-H      -82.36   -102.59  -20.22  (H3O)Fe3(SO4)2(OH)6
  Lepidocrocite     1.20      2.57    1.37  FeOOH
  Mackinawite      -0.97      2.57    3.54  FeS
  Maghemite        -1.24      5.15    6.39  Fe2O3
  Magnetite        24.34     20.65   -3.70  Fe3O4
  Melanterite     -37.63    -39.68   -2.05  FeSO4:7H2O
  O2(g)           -68.85     -5.45   63.40  O2
  pe_fix           10.84     10.84    0.00  e-
  pH_fix           -9.48     -9.48    0.00  H+
  Pyrite          -10.32    -36.21  -25.88  FeS2
  Pyrrhotite        0.00      2.57    2.57  FeS
  Sulfur          -19.45    -22.18   -2.73  S

**For a gas, SI = log10(fugacity). Fugacity = pressure * phi / 1 atm.
  For ideal gases, phi = 1.

Reaction step 110.

Using solution 1.	PURE WATER
Using pure phase assemblage 1.	
Using reaction 1.	

Reaction 1.	

	  1.000e-02 moles of the following reaction have been added:

	                 Relative
	Reactant            moles

	Fe3S1                1.00000

	                 Relative
	Element             moles
	Fe                   3.00000
	S                    1.00000

-------------------------------Phase assemblage--------------------------------

                                                      Moles in assemblage
Phase               SI  log IAP  log K(T, P)   Initial       Final       Delta

Greigite        -21.06   -31.16    -10.10    0.000e+00           0   0.000e+00
Mackinawite      -0.97     2.57      3.54    0.000e+00           0   0.000e+00
Pyrite          -10.41   -36.29    -25.88    0.000e+00           0   0.000e+00
Pyrrhotite        0.00     2.57      2.57    1.011e-01   1.111e-01   1.000e-02

-----------------------------Solution composition------------------------------

	Elements           Molality       Moles

	Fe                2.240e-01   2.222e-01
	S                 3.282e-08   3.256e-08

----------------------------Description of solution----------------------------

                                       pH  =   9.483      Charge balance
                                       pe  = -10.865      Adjusted to redox equilibrium
                        Activity of water  =   0.992
                 Ionic strength (mol/kgw)  =   4.135e-02
                       Mass of water (kg)  =   9.920e-01
                 Total alkalinity (eq/kg)  =   4.480e-01
                         Temperature (°C)  = 100.00
                  Electrical balance (eq)  =  -3.823e-11
 Percent error, 100*(Cat-|An|)/(Cat+|An|)  =  -0.00
                               Iterations  =   5
                                  Total H  = 1.110124e+02
                                  Total O  = 5.550622e+01

----------------------------Distribution of species----------------------------

                                               Log       Log       Log    mole V
   Species          Molality    Activity  Molality  Activity     Gamma    cm³/mol

   OH-             3.514e-03   2.804e-03    -2.454    -2.552    -0.098     (0)  
   H+              3.908e-10   3.288e-10    -9.408    -9.483    -0.075      0.00
   H2O             5.551e+01   9.923e-01     1.744    -0.003     0.000     18.80
Fe(2)         2.240e-01
   Fe(OH)2         1.473e-01   1.487e-01    -0.832    -0.828     0.004     (0)  
   FeOH+           3.886e-02   3.155e-02    -1.411    -1.501    -0.091     (0)  
   Fe(OH)3-        3.700e-02   3.004e-02    -1.432    -1.522    -0.091     (0)  
   Fe+2            8.299e-04   3.756e-04    -3.081    -3.425    -0.344     (0)  
   Fe(HS)2         3.139e-15   3.169e-15   -14.503   -14.499     0.004     (0)  
   Fe(HS)3-        4.168e-23   3.357e-23   -22.380   -22.474    -0.094     (0)  
   FeSO4           7.944e-38   8.020e-38   -37.100   -37.096     0.004     (0)  
Fe(3)         3.719e-10
   Fe(OH)4-        3.619e-10   2.951e-10    -9.441    -9.530    -0.089     (0)  
   Fe(OH)3         9.685e-12   9.777e-12   -11.014   -11.010     0.004     (0)  
   Fe(OH)2+        3.382e-13   2.758e-13   -12.471   -12.559    -0.089     (0)  
   FeOH+2          2.162e-17   9.394e-18   -16.665   -17.027    -0.362     (0)  
   Fe+3            6.705e-26   1.416e-26   -25.174   -25.849    -0.675     (0)  
   Fe2(OH)2+4      6.366e-33   1.998e-34   -32.196   -33.699    -1.503     (0)  
   Fe3(OH)4+5      0.000e+00   0.000e+00   -41.472   -43.821    -2.349     (0)  
   FeSO4+          0.000e+00   0.000e+00   -57.659   -57.749    -0.091     (0)  
   Fe(SO4)2-       0.000e+00   0.000e+00   -92.450   -92.544    -0.094     (0)  
H(0)          4.480e-01
   H2              2.240e-01   2.262e-01    -0.650    -0.646     0.004     (0)  
O(0)          0.000e+00
   O2              0.000e+00   0.000e+00   -71.760   -71.756     0.004     (0)  
S(-2)         3.282e-08
   S5-2            4.189e-09   1.763e-09    -8.378    -8.754    -0.376     (0)  
   S4-2            2.799e-09   1.178e-09    -8.553    -8.929    -0.376     (0)  
   HS-             1.220e-10   9.729e-11    -9.914   -10.012    -0.098     (0)  
   S6-2            9.246e-11   3.892e-11   -10.034   -10.410    -0.376     (0)  
   S-2             4.987e-12   2.166e-12   -11.302   -11.664    -0.362     (0)  
   S3-2            1.251e-12   5.264e-13   -11.903   -12.279    -0.376     (0)  
   H2S             1.051e-13   1.061e-13   -12.978   -12.974     0.004     (0)  
   S2-2            9.964e-14   4.194e-14   -13.002   -13.377    -0.376     (0)  
   Fe(HS)2         3.139e-15   3.169e-15   -14.503   -14.499     0.004     (0)  
   Fe(HS)3-        4.168e-23   3.357e-23   -22.380   -22.474    -0.094     (0)  
S(6)          1.050e-36
   SO4-2           9.705e-37   4.014e-37   -36.013   -36.396    -0.383     (0)  
   FeSO4           7.944e-38   8.020e-38   -37.100   -37.096     0.004     (0)  
   HSO4-           0.000e+00   0.000e+00   -42.800   -42.893    -0.093     (0)  
   FeSO4+          0.000e+00   0.000e+00   -57.659   -57.749    -0.091     (0)  
   Fe(SO4)2-       0.000e+00   0.000e+00   -92.450   -92.544    -0.094     (0)  

------------------------------Saturation indices-------------------------------

  Phase               SI** log IAP   log K(373 K,   1 atm)

  Fe2(SO4)3      -155.76   -160.89   -5.13  Fe2(SO4)3
  Fe3(OH)8          0.49     20.71   20.22  Fe3(OH)8
  Ferrihydrite     -2.30      2.59    4.89  Fe(OH)3
  FeS(ppt)         -0.04     -3.95   -3.92  FeS
  Goethite          4.23      2.59   -1.63  FeOOH
  Greigite        -21.06    -31.16  -10.10  Fe3S4
  Hematite         13.74      5.19   -8.55  Fe2O3
  Jarosite-H      -82.72   -102.95  -20.22  (H3O)Fe3(SO4)2(OH)6
  Lepidocrocite     1.22      2.59    1.37  FeOOH
  Mackinawite      -0.97      2.57    3.54  FeS
  Maghemite        -1.20      5.19    6.39  Fe2O3
  Magnetite        24.42     20.73   -3.70  Fe3O4
  Melanterite     -37.80    -39.85   -2.05  FeSO4:7H2O
  O2(g)           -68.94     -5.53   63.40  O2
  pe_fix           10.86     10.86    0.00  e-
  pH_fix           -9.48     -9.48    0.00  H+
  Pyrite          -10.41    -36.29  -25.88  FeS2
  Pyrrhotite        0.00      2.57    2.57  FeS
  Sulfur          -19.53    -22.26   -2.73  S

**For a gas, SI = log10(fugacity). Fugacity = pressure * phi / 1 atm.
  For ideal gases, phi = 1.

------------------
End of simulation.
------------------

------------------------------------
Reading input data for simulation 3.
------------------------------------

-------------------------------
End of Run after 0.268 Seconds.
-------------------------------

