   Input file: C:\Users\jt2020\OneDrive - Imperial College London\Data\Thermodynamics\Thermodynamics\Phreeq\Reaction Progress\All models with pyrrhotite\HS-\HS- unbuffered.pqi
  Output file: C:\Users\jt2020\OneDrive - Imperial College London\Data\Thermodynamics\Thermodynamics\Phreeq\Reaction Progress\All models with pyrrhotite\HS-\HS- unbuffered.pqo
Database file: C:\Users\jt2020\OneDrive - Imperial College London\Data\Thermodynamics\Thermodynamics\Phreeq\Reaction Progress\All models with pyrrhotite\Database\llnlpyrrminteq.dat

------------------
Reading data base.
------------------

	SOLUTION_MASTER_SPECIES
	SOLUTION_SPECIES
	SOLUTION_SPECIES
	PHASES
	SURFACE_MASTER_SPECIES
	SURFACE_SPECIES
	END
------------------------------------
Reading input data for simulation 1.
------------------------------------

	DATABASE C:\Users\jt2020\OneDrive - Imperial College London\Data\Thermodynamics\Thermodynamics\Phreeq\Reaction Progress\All models with pyrrhotite\Database\llnlpyrrminteq.dat
	TITLE HS- alkaline S dom
	SOLUTION 1  PURE WATER
	            pH    8 charge
	          temp   25.0
	           pe     -6.76       #-400 mV 
	PHASES
	       pH_fix
	                H + = H +
	                log_k = 0.0
	       pe_fix
	                e- = e-
	                log_k 0.0
	       Mackinawite   
	                FeS + H+ = Fe+2 + HS-
	                log_k          -2.1371
	                delta_h        -3.578 kcal
	       Pyrrhotite
	                FeS + H+ = Fe+2 + HS-
	                log_k     -3.24554
	                delta_h        -2.646 kcal
	        Greigite
	                Fe3S4 + 4H+ = 2Fe+3 + Fe+2 + 4HS-
	                log_k   -41.128
	                delta_h  42.2473      kcal
	        Pyrite
	                FeS2 + 2H+ + 2e- = Fe+2 + 2HS-
	                log_k          -18.479
	                delta_h        11.3    kcal
	END
-----
TITLE
-----

 HS- alkaline S dom

-------------------------------------------
Beginning of initial solution calculations.
-------------------------------------------

Initial solution 1.	PURE WATER

-----------------------------Solution composition------------------------------

	Elements           Molality       Moles

	Pure water     

----------------------------Description of solution----------------------------

                                       pH  =   6.999      Charge balance
                                       pe  =  -6.760    
                        Activity of water  =   1.000
                 Ionic strength (mol/kgw)  =   1.003e-07
                       Mass of water (kg)  =   1.000e+00
                 Total alkalinity (eq/kg)  =   4.513e-21
                         Temperature (°C)  =  25.00
                  Electrical balance (eq)  =  -4.513e-21
 Percent error, 100*(Cat-|An|)/(Cat+|An|)  =  -0.00
                               Iterations  =   6
                                  Total H  = 1.110129e+02
                                  Total O  = 5.550622e+01

----------------------------Distribution of species----------------------------

                                               Log       Log       Log    mole V
   Species          Molality    Activity  Molality  Activity     Gamma    cm³/mol

   OH-             1.003e-07   1.002e-07    -6.999    -6.999    -0.000     (0)  
   H+              1.003e-07   1.002e-07    -6.999    -6.999    -0.000      0.00
   H2O             5.551e+01   1.000e+00     1.744    -0.000     0.000     18.07
H(0)          4.710e-04
   H2              2.355e-04   2.355e-04    -3.628    -3.628     0.000     (0)  
O(0)          0.000e+00
   O2              0.000e+00   0.000e+00   -85.124   -85.124     0.000     (0)  

------------------------------Saturation indices-------------------------------

  Phase               SI** log IAP   log K(298 K,   1 atm)

  O2(g)           -82.16      0.96   83.12  O2
  pe_fix            6.76      6.76    0.00  e-
  pH_fix           -7.00     -7.00    0.00  H+

**For a gas, SI = log10(fugacity). Fugacity = pressure * phi / 1 atm.
  For ideal gases, phi = 1.

------------------
End of simulation.
------------------

------------------------------------
Reading input data for simulation 2.
------------------------------------

	INCREMENTAL_REACTIONS
	REACTION
	Fe1S3 1
	10*1e-12 10*1e-11 10*1e-10 10*1e-9 10*1e-8 10*1e-7 10*1e-6 10*1e-5 10*1e-4  10*1e-3  10*1e-2 mol
	USE solution 1
	EQUILIBRIUM_PHASES 1
	        Mackinawite     0.0     0.0
	        Pyrrhotite      0.0     0.0
	        Greigite        0.0     0.0
	        Pyrite          0.0     0.0
	USER_GRAPH 1 Simulation 6
	    -headings               Pyrite Greigite Mackinawite Pyrrhotite
	    -axis_titles            "Fe and S added, Log moles" "Mineral, moles"
	    -chart_title            "Sulphur dominant system with HS- as the oxidant"
	    -axis_scale sy_axis     auto auto auto auto log
	    -initial_solutions      false
	    -connect_simulations    false
	    -axis_scale y_axis      auto auto auto auto Log
	    -axis_scale sy_axis	    auto auto auto auto Log
	    -plot_concentration_vs  x
	  -start
	 5 PUT(GET(1) + RXN, 1)
	  20 PLOT_XY log10(GET(1)), EQUI("Pyrite") color = Green, line_w = 0,   	symbol = Plus, symbol_size = 5, y_axis = 2
	  30 PLOT_XY log10(GET(1)), EQUI("Greigite") color = Blue, line_w = 0,   	symbol = Plus, symbol_size = 5, y_axis = 2
	  40 PLOT_XY log10(GET(1)), EQUI("Mackinawite") color = Cyan, line_w = 0,   	symbol = Plus, symbol_size = 5, y_axis = 2
	  60 PLOT_XY log10(GET(1)), EQUI("Pyrrhotite") color = Red, line_w = 0,   	symbol = Plus, symbol_size = 5, y_axis = 2
	  -end
	    -active                 true
	SELECTED_OUTPUT
	    file                 HS- S both unbuffered.csv
	    saturation_indices   Mackinawite  Greigite  Pyrite Pyrrhotite
	    reaction             
	    totals               Fe S 
	    equilibrium_phases   Mackinawite  Greigite  Pyrite Pyrrhotite
	END
-----------------------------------------
Beginning of batch-reaction calculations.
-----------------------------------------

Reaction step 1.

Using solution 1.	PURE WATER
Using pure phase assemblage 1.	
Using reaction 1.	

Reaction 1.	

	  1.000e-12 moles of the following reaction have been added:

	                 Relative
	Reactant            moles

	Fe1S3                1.00000

	                 Relative
	Element             moles
	Fe                   1.00000
	S                    3.00000

-------------------------------Phase assemblage--------------------------------

                                                      Moles in assemblage
Phase               SI  log IAP  log K(T, P)   Initial       Final       Delta

Greigite        -53.68   -94.80    -41.13    0.000e+00           0   0.000e+00
Mackinawite     -14.67   -16.81     -2.14    0.000e+00           0   0.000e+00
Pyrite          -16.65   -35.13    -18.48    0.000e+00           0   0.000e+00
Pyrrhotite      -13.56   -16.81     -3.25    0.000e+00           0   0.000e+00

-----------------------------Solution composition------------------------------

	Elements           Molality       Moles

	Fe                1.000e-12   1.000e-12
	S                 3.000e-12   3.000e-12

----------------------------Description of solution----------------------------

                                       pH  =   6.999      Charge balance
                                       pe  =  -6.760      Adjusted to redox equilibrium
                        Activity of water  =   1.000
                 Ionic strength (mol/kgw)  =   1.003e-07
                       Mass of water (kg)  =   1.000e+00
                 Total alkalinity (eq/kg)  =   2.000e-12
                         Temperature (°C)  =  25.00
                  Electrical balance (eq)  =  -2.823e-21
 Percent error, 100*(Cat-|An|)/(Cat+|An|)  =  -0.00
                               Iterations  =   3
                                  Total H  = 1.110129e+02
                                  Total O  = 5.550622e+01

----------------------------Distribution of species----------------------------

                                               Log       Log       Log    mole V
   Species          Molality    Activity  Molality  Activity     Gamma    cm³/mol

   OH-             1.003e-07   1.002e-07    -6.999    -6.999    -0.000     (0)  
   H+              1.003e-07   1.002e-07    -6.999    -6.999    -0.000      0.00
   H2O             5.551e+01   1.000e+00     1.744    -0.000     0.000     18.07
Fe(2)         1.000e-12
   Fe+2            9.969e-13   9.954e-13   -12.001   -12.002    -0.001     (0)  
   FeOH+           3.142e-15   3.140e-15   -14.503   -14.503    -0.000     (0)  
   Fe(OH)2         2.667e-19   2.667e-19   -18.574   -18.574     0.000     (0)  
   Fe(OH)3-        9.889e-23   9.885e-23   -22.005   -22.005    -0.000     (0)  
   Fe(HS)2         2.204e-27   2.204e-27   -26.657   -26.657     0.000     (0)  
   Fe(HS)3-        3.785e-37   3.783e-37   -36.422   -36.422    -0.000     (0)  
   FeSO4           0.000e+00   0.000e+00   -46.303   -46.303     0.000     (0)  
Fe(3)         3.863e-24
   Fe(OH)2+        3.421e-24   3.420e-24   -23.466   -23.466    -0.000     (0)  
   Fe(OH)3         4.009e-25   4.009e-25   -24.397   -24.397     0.000     (0)  
   Fe(OH)4-        4.001e-26   3.999e-26   -25.398   -25.398    -0.000     (0)  
   FeOH+2          1.037e-27   1.035e-27   -26.984   -26.985    -0.001     (0)  
   Fe+3            1.612e-32   1.607e-32   -31.793   -31.794    -0.001     (0)  
   Fe2(OH)2+4      0.000e+00   0.000e+00   -52.537   -52.540    -0.003     (0)  
   FeSO4+          0.000e+00   0.000e+00   -64.425   -64.425    -0.000     (0)  
   Fe3(OH)4+5      0.000e+00   0.000e+00   -73.682   -73.686    -0.004     (0)  
   Fe(SO4)2-       0.000e+00   0.000e+00   -99.477   -99.477    -0.000     (0)  
H(0)          4.710e-04
   H2              2.355e-04   2.355e-04    -3.628    -3.628     0.000     (0)  
O(0)          0.000e+00
   O2              0.000e+00   0.000e+00   -85.124   -85.124     0.000     (0)  
S(-2)         3.000e-12
   HS-             1.577e-12   1.576e-12   -11.802   -11.802    -0.000     (0)  
   H2S             1.381e-12   1.381e-12   -11.860   -11.860     0.000     (0)  
   S5-2            4.002e-15   3.996e-15   -14.398   -14.398    -0.001     (0)  
   S4-2            2.335e-15   2.331e-15   -14.632   -14.632    -0.001     (0)  
   S6-2            2.071e-15   2.068e-15   -14.684   -14.684    -0.001     (0)  
   S-2             1.902e-18   1.899e-18   -17.721   -17.721    -0.001     (0)  
   S3-2            8.228e-19   8.215e-19   -18.085   -18.085    -0.001     (0)  
   S2-2            4.670e-20   4.663e-20   -19.331   -19.331    -0.001     (0)  
   Fe(HS)2         2.204e-27   2.204e-27   -26.657   -26.657     0.000     (0)  
   Fe(HS)3-        3.785e-37   3.783e-37   -36.422   -36.422    -0.000     (0)  
S(6)          2.814e-37
   SO4-2           2.814e-37   2.810e-37   -36.551   -36.551    -0.001     (0)  
   HSO4-           0.000e+00   0.000e+00   -41.563   -41.563    -0.000     (0)  
   FeSO4           0.000e+00   0.000e+00   -46.303   -46.303     0.000     (0)  
   FeSO4+          0.000e+00   0.000e+00   -64.425   -64.425    -0.000     (0)  
   Fe(SO4)2-       0.000e+00   0.000e+00   -99.477   -99.477    -0.000     (0)  

------------------------------Saturation indices-------------------------------

  Phase               SI** log IAP   log K(298 K,   1 atm)

  Fe2(SO4)3      -176.82   -173.24    3.58  Fe2(SO4)3
  Fe3(OH)8        -39.82    -19.60   20.22  Fe3(OH)8
  Ferrihydrite    -15.69    -10.80    4.89  Fe(OH)3
  FeS(ppt)        -12.89    -16.81   -3.92  FeS
  Goethite        -11.30    -10.80    0.50  FeOOH
  Greigite        -53.68    -94.80  -41.13  Fe3S4
  Hematite        -17.59    -21.59   -4.01  Fe2O3
  Jarosite-H     -121.39   -133.49  -12.10  (H3O)Fe3(SO4)2(OH)6
  Lepidocrocite   -12.17    -10.80    1.37  FeOOH
  Mackinawite     -14.67    -16.81   -2.14  FeS
  Maghemite       -27.98    -21.59    6.39  Fe2O3
  Magnetite       -23.34    -19.60    3.74  Fe3O4
  Melanterite     -46.08    -48.55   -2.47  FeSO4:7H2O
  O2(g)           -82.16      0.96   83.12  O2
  pe_fix            6.76      6.76    0.00  e-
  pH_fix           -7.00     -7.00    0.00  H+
  Pyrite          -16.65    -35.13  -18.48  FeS2
  Pyrrhotite      -13.56    -16.81   -3.25  FeS
  Sulfur          -16.21    -18.32   -2.11  S

**For a gas, SI = log10(fugacity). Fugacity = pressure * phi / 1 atm.
  For ideal gases, phi = 1.

Reaction step 2.

Using solution 1.	PURE WATER
Using pure phase assemblage 1.	
Using reaction 1.	

Reaction 1.	

	  1.000e-12 moles of the following reaction have been added:

	                 Relative
	Reactant            moles

	Fe1S3                1.00000

	                 Relative
	Element             moles
	Fe                   1.00000
	S                    3.00000

-------------------------------Phase assemblage--------------------------------

                                                      Moles in assemblage
Phase               SI  log IAP  log K(T, P)   Initial       Final       Delta

Greigite        -51.57   -92.70    -41.13    0.000e+00           0   0.000e+00
Mackinawite     -14.07   -16.20     -2.14    0.000e+00           0   0.000e+00
Pyrite          -15.75   -34.23    -18.48    0.000e+00           0   0.000e+00
Pyrrhotite      -12.96   -16.20     -3.25    0.000e+00           0   0.000e+00

-----------------------------Solution composition------------------------------

	Elements           Molality       Moles

	Fe                2.000e-12   2.000e-12
	S                 6.000e-12   6.000e-12

----------------------------Description of solution----------------------------

                                       pH  =   6.999      Charge balance
                                       pe  =  -6.760      Adjusted to redox equilibrium
                        Activity of water  =   1.000
                 Ionic strength (mol/kgw)  =   1.003e-07
                       Mass of water (kg)  =   1.000e+00
                 Total alkalinity (eq/kg)  =   4.000e-12
                         Temperature (°C)  =  25.00
                  Electrical balance (eq)  =  -2.831e-21
 Percent error, 100*(Cat-|An|)/(Cat+|An|)  =  -0.00
                               Iterations  =   5
                                  Total H  = 1.110129e+02
                                  Total O  = 5.550622e+01

----------------------------Distribution of species----------------------------

                                               Log       Log       Log    mole V
   Species          Molality    Activity  Molality  Activity     Gamma    cm³/mol

   OH-             1.003e-07   1.002e-07    -6.999    -6.999    -0.000     (0)  
   H+              1.003e-07   1.002e-07    -6.999    -6.999    -0.000      0.00
   H2O             5.551e+01   1.000e+00     1.744    -0.000     0.000     18.07
Fe(2)         2.000e-12
   Fe+2            1.994e-12   1.991e-12   -11.700   -11.701    -0.001     (0)  
   FeOH+           6.283e-15   6.281e-15   -14.202   -14.202    -0.000     (0)  
   Fe(OH)2         5.334e-19   5.334e-19   -18.273   -18.273     0.000     (0)  
   Fe(OH)3-        1.978e-22   1.977e-22   -21.704   -21.704    -0.000     (0)  
   Fe(HS)2         1.763e-26   1.763e-26   -25.754   -25.754     0.000     (0)  
   Fe(HS)3-        6.056e-36   6.053e-36   -35.218   -35.218    -0.000     (0)  
   FeSO4           0.000e+00   0.000e+00   -45.701   -45.701     0.000     (0)  
Fe(3)         7.726e-24
   Fe(OH)2+        6.842e-24   6.839e-24   -23.165   -23.165    -0.000     (0)  
   Fe(OH)3         8.017e-25   8.017e-25   -24.096   -24.096     0.000     (0)  
   Fe(OH)4-        8.002e-26   7.999e-26   -25.097   -25.097    -0.000     (0)  
   FeOH+2          2.073e-27   2.070e-27   -26.683   -26.684    -0.001     (0)  
   Fe+3            3.225e-32   3.214e-32   -31.492   -31.493    -0.001     (0)  
   Fe2(OH)2+4      0.000e+00   0.000e+00   -51.935   -51.938    -0.003     (0)  
   FeSO4+          0.000e+00   0.000e+00   -63.823   -63.823    -0.000     (0)  
   Fe3(OH)4+5      0.000e+00   0.000e+00   -72.779   -72.783    -0.004     (0)  
   Fe(SO4)2-       0.000e+00   0.000e+00   -98.573   -98.574    -0.000     (0)  
H(0)          4.710e-04
   H2              2.355e-04   2.355e-04    -3.628    -3.628     0.000     (0)  
O(0)          0.000e+00
   O2              0.000e+00   0.000e+00   -85.124   -85.124     0.000     (0)  
S(-2)         6.000e-12
   HS-             3.154e-12   3.153e-12   -11.501   -11.501    -0.000     (0)  
   H2S             2.763e-12   2.763e-12   -11.559   -11.559     0.000     (0)  
   S5-2            8.004e-15   7.992e-15   -14.097   -14.097    -0.001     (0)  
   S4-2            4.670e-15   4.663e-15   -14.331   -14.331    -0.001     (0)  
   S6-2            4.143e-15   4.137e-15   -14.383   -14.383    -0.001     (0)  
   S-2             3.805e-18   3.799e-18   -17.420   -17.420    -0.001     (0)  
   S3-2            1.646e-18   1.643e-18   -17.784   -17.784    -0.001     (0)  
   S2-2            9.339e-20   9.325e-20   -19.030   -19.030    -0.001     (0)  
   Fe(HS)2         1.763e-26   1.763e-26   -25.754   -25.754     0.000     (0)  
   Fe(HS)3-        6.056e-36   6.053e-36   -35.218   -35.218    -0.000     (0)  
S(6)          5.627e-37
   SO4-2           5.627e-37   5.619e-37   -36.250   -36.250    -0.001     (0)  
   HSO4-           0.000e+00   0.000e+00   -41.262   -41.262    -0.000     (0)  
   FeSO4           0.000e+00   0.000e+00   -45.701   -45.701     0.000     (0)  
   FeSO4+          0.000e+00   0.000e+00   -63.823   -63.823    -0.000     (0)  
   Fe(SO4)2-       0.000e+00   0.000e+00   -98.573   -98.574    -0.000     (0)  

------------------------------Saturation indices-------------------------------

  Phase               SI** log IAP   log K(298 K,   1 atm)

  Fe2(SO4)3      -175.32   -171.74    3.58  Fe2(SO4)3
  Fe3(OH)8        -38.92    -18.69   20.22  Fe3(OH)8
  Ferrihydrite    -15.39    -10.50    4.89  Fe(OH)3
  FeS(ppt)        -12.29    -16.20   -3.92  FeS
  Goethite        -11.00    -10.50    0.50  FeOOH
  Greigite        -51.57    -92.70  -41.13  Fe3S4
  Hematite        -16.98    -20.99   -4.01  Fe2O3
  Jarosite-H     -119.88   -131.98  -12.10  (H3O)Fe3(SO4)2(OH)6
  Lepidocrocite   -11.87    -10.50    1.37  FeOOH
  Mackinawite     -14.07    -16.20   -2.14  FeS
  Maghemite       -27.38    -20.99    6.39  Fe2O3
  Magnetite       -22.43    -18.69    3.74  Fe3O4
  Melanterite     -45.48    -47.95   -2.47  FeSO4:7H2O
  O2(g)           -82.16      0.96   83.12  O2
  pe_fix            6.76      6.76    0.00  e-
  pH_fix           -7.00     -7.00    0.00  H+
  Pyrite          -15.75    -34.23  -18.48  FeS2
  Pyrrhotite      -12.96    -16.20   -3.25  FeS
  Sulfur          -15.91    -18.02   -2.11  S

**For a gas, SI = log10(fugacity). Fugacity = pressure * phi / 1 atm.
  For ideal gases, phi = 1.

Reaction step 3.

Using solution 1.	PURE WATER
Using pure phase assemblage 1.	
Using reaction 1.	

Reaction 1.	

	  1.000e-12 moles of the following reaction have been added:

	                 Relative
	Reactant            moles

	Fe1S3                1.00000

	                 Relative
	Element             moles
	Fe                   1.00000
	S                    3.00000

-------------------------------Phase assemblage--------------------------------

                                                      Moles in assemblage
Phase               SI  log IAP  log K(T, P)   Initial       Final       Delta

Greigite        -50.34   -91.46    -41.13    0.000e+00           0   0.000e+00
Mackinawite     -13.71   -15.85     -2.14    0.000e+00           0   0.000e+00
Pyrite          -15.22   -33.70    -18.48    0.000e+00           0   0.000e+00
Pyrrhotite      -12.61   -15.85     -3.25    0.000e+00           0   0.000e+00

-----------------------------Solution composition------------------------------

	Elements           Molality       Moles

	Fe                3.000e-12   3.000e-12
	S                 9.000e-12   9.000e-12

----------------------------Description of solution----------------------------

                                       pH  =   6.999      Charge balance
                                       pe  =  -6.760      Adjusted to redox equilibrium
                        Activity of water  =   1.000
                 Ionic strength (mol/kgw)  =   1.003e-07
                       Mass of water (kg)  =   1.000e+00
                 Total alkalinity (eq/kg)  =   6.000e-12
                         Temperature (°C)  =  25.00
                  Electrical balance (eq)  =  -2.711e-21
 Percent error, 100*(Cat-|An|)/(Cat+|An|)  =  -0.00
                               Iterations  =   4
                                  Total H  = 1.110129e+02
                                  Total O  = 5.550622e+01

----------------------------Distribution of species----------------------------

                                               Log       Log       Log    mole V
   Species          Molality    Activity  Molality  Activity     Gamma    cm³/mol

   OH-             1.003e-07   1.002e-07    -6.999    -6.999    -0.000     (0)  
   H+              1.003e-07   1.002e-07    -6.999    -6.999    -0.000      0.00
   H2O             5.551e+01   1.000e+00     1.744    -0.000     0.000     18.07
Fe(2)         3.000e-12
   Fe+2            2.991e-12   2.986e-12   -11.524   -11.525    -0.001     (0)  
   FeOH+           9.425e-15   9.421e-15   -14.026   -14.026    -0.000     (0)  
   Fe(OH)2         8.000e-19   8.000e-19   -18.097   -18.097     0.000     (0)  
   Fe(OH)3-        2.967e-22   2.966e-22   -21.528   -21.528    -0.000     (0)  
   Fe(HS)2         5.951e-26   5.951e-26   -25.225   -25.225     0.000     (0)  
   Fe(HS)3-        3.066e-35   3.065e-35   -34.513   -34.514    -0.000     (0)  
   FeSO4           0.000e+00   0.000e+00   -45.349   -45.349     0.000     (0)  
Fe(3)         1.159e-23
   Fe(OH)2+        1.026e-23   1.026e-23   -22.989   -22.989    -0.000     (0)  
   Fe(OH)3         1.203e-24   1.203e-24   -23.920   -23.920     0.000     (0)  
   Fe(OH)4-        1.200e-25   1.200e-25   -24.921   -24.921    -0.000     (0)  
   FeOH+2          3.110e-27   3.105e-27   -26.507   -26.508    -0.001     (0)  
   Fe+3            4.837e-32   4.821e-32   -31.315   -31.317    -0.001     (0)  
   Fe2(OH)2+4      0.000e+00   0.000e+00   -51.583   -51.586    -0.003     (0)  
   FeSO4+          0.000e+00   0.000e+00   -63.471   -63.471    -0.000     (0)  
   Fe3(OH)4+5      0.000e+00   0.000e+00   -72.251   -72.255    -0.004     (0)  
   Fe(SO4)2-       0.000e+00   0.000e+00   -98.045   -98.045    -0.000     (0)  
H(0)          4.710e-04
   H2              2.355e-04   2.355e-04    -3.628    -3.628     0.000     (0)  
O(0)          0.000e+00
   O2              0.000e+00   0.000e+00   -85.124   -85.124     0.000     (0)  
S(-2)         9.000e-12
   HS-             4.731e-12   4.729e-12   -11.325   -11.325    -0.000     (0)  
   H2S             4.144e-12   4.144e-12   -11.383   -11.383     0.000     (0)  
   S5-2            1.201e-14   1.199e-14   -13.921   -13.921    -0.001     (0)  
   S4-2            7.005e-15   6.994e-15   -14.155   -14.155    -0.001     (0)  
   S6-2            6.214e-15   6.205e-15   -14.207   -14.207    -0.001     (0)  
   S-2             5.707e-18   5.698e-18   -17.244   -17.244    -0.001     (0)  
   S3-2            2.468e-18   2.465e-18   -17.608   -17.608    -0.001     (0)  
   S2-2            1.401e-19   1.399e-19   -18.854   -18.854    -0.001     (0)  
   Fe(HS)2         5.951e-26   5.951e-26   -25.225   -25.225     0.000     (0)  
   Fe(HS)3-        3.066e-35   3.065e-35   -34.513   -34.514    -0.000     (0)  
S(6)          8.441e-37
   SO4-2           8.441e-37   8.429e-37   -36.074   -36.074    -0.001     (0)  
   HSO4-           0.000e+00   0.000e+00   -41.086   -41.086    -0.000     (0)  
   FeSO4           0.000e+00   0.000e+00   -45.349   -45.349     0.000     (0)  
   FeSO4+          0.000e+00   0.000e+00   -63.471   -63.471    -0.000     (0)  
   Fe(SO4)2-       0.000e+00   0.000e+00   -98.045   -98.045    -0.000     (0)  

------------------------------Saturation indices-------------------------------

  Phase               SI** log IAP   log K(298 K,   1 atm)

  Fe2(SO4)3      -174.44   -170.86    3.58  Fe2(SO4)3
  Fe3(OH)8        -38.39    -18.17   20.22  Fe3(OH)8
  Ferrihydrite    -15.21    -10.32    4.89  Fe(OH)3
  FeS(ppt)        -11.94    -15.85   -3.92  FeS
  Goethite        -10.82    -10.32    0.50  FeOOH
  Greigite        -50.34    -91.46  -41.13  Fe3S4
  Hematite        -16.63    -20.64   -4.01  Fe2O3
  Jarosite-H     -119.00   -131.10  -12.10  (H3O)Fe3(SO4)2(OH)6
  Lepidocrocite   -11.69    -10.32    1.37  FeOOH
  Mackinawite     -13.71    -15.85   -2.14  FeS
  Maghemite       -27.03    -20.64    6.39  Fe2O3
  Magnetite       -21.90    -18.17    3.74  Fe3O4
  Melanterite     -45.13    -47.60   -2.47  FeSO4:7H2O
  O2(g)           -82.16      0.96   83.12  O2
  pe_fix            6.76      6.76    0.00  e-
  pH_fix           -7.00     -7.00    0.00  H+
  Pyrite          -15.22    -33.70  -18.48  FeS2
  Pyrrhotite      -12.61    -15.85   -3.25  FeS
  Sulfur          -15.74    -17.85   -2.11  S

**For a gas, SI = log10(fugacity). Fugacity = pressure * phi / 1 atm.
  For ideal gases, phi = 1.

Reaction step 4.

Using solution 1.	PURE WATER
Using pure phase assemblage 1.	
Using reaction 1.	

Reaction 1.	

	  1.000e-12 moles of the following reaction have been added:

	                 Relative
	Reactant            moles

	Fe1S3                1.00000

	                 Relative
	Element             moles
	Fe                   1.00000
	S                    3.00000

-------------------------------Phase assemblage--------------------------------

                                                      Moles in assemblage
Phase               SI  log IAP  log K(T, P)   Initial       Final       Delta

Greigite        -49.46   -90.59    -41.13    0.000e+00           0   0.000e+00
Mackinawite     -13.46   -15.60     -2.14    0.000e+00           0   0.000e+00
Pyrite          -14.84   -33.32    -18.48    0.000e+00           0   0.000e+00
Pyrrhotite      -12.36   -15.60     -3.25    0.000e+00           0   0.000e+00

-----------------------------Solution composition------------------------------

	Elements           Molality       Moles

	Fe                4.000e-12   4.000e-12
	S                 1.200e-11   1.200e-11

----------------------------Description of solution----------------------------

                                       pH  =   6.999      Charge balance
                                       pe  =  -6.760      Adjusted to redox equilibrium
                        Activity of water  =   1.000
                 Ionic strength (mol/kgw)  =   1.003e-07
                       Mass of water (kg)  =   1.000e+00
                 Total alkalinity (eq/kg)  =   8.000e-12
                         Temperature (°C)  =  25.00
                  Electrical balance (eq)  =  -2.512e-21
 Percent error, 100*(Cat-|An|)/(Cat+|An|)  =  -0.00
                               Iterations  =   4
                                  Total H  = 1.110129e+02
                                  Total O  = 5.550622e+01

----------------------------Distribution of species----------------------------

                                               Log       Log       Log    mole V
   Species          Molality    Activity  Molality  Activity     Gamma    cm³/mol

   OH-             1.003e-07   1.002e-07    -6.999    -6.999    -0.000     (0)  
   H+              1.003e-07   1.002e-07    -6.999    -6.999    -0.000      0.00
   H2O             5.551e+01   1.000e+00     1.744    -0.000     0.000     18.07
Fe(2)         4.000e-12
   Fe+2            3.987e-12   3.982e-12   -11.399   -11.400    -0.001     (0)  
   FeOH+           1.257e-14   1.256e-14   -13.901   -13.901    -0.000     (0)  
   Fe(OH)2         1.067e-18   1.067e-18   -17.972   -17.972     0.000     (0)  
   Fe(OH)3-        3.956e-22   3.954e-22   -21.403   -21.403    -0.000     (0)  
   Fe(HS)2         1.411e-25   1.411e-25   -24.851   -24.851     0.000     (0)  
   Fe(HS)3-        9.689e-35   9.686e-35   -34.014   -34.014    -0.000     (0)  
   FeSO4           0.000e+00   0.000e+00   -45.099   -45.099     0.000     (0)  
Fe(3)         1.545e-23
   Fe(OH)2+        1.368e-23   1.368e-23   -22.864   -22.864    -0.000     (0)  
   Fe(OH)3         1.603e-24   1.603e-24   -23.795   -23.795     0.000     (0)  
   Fe(OH)4-        1.600e-25   1.600e-25   -24.796   -24.796    -0.000     (0)  
   FeOH+2          4.147e-27   4.140e-27   -26.382   -26.383    -0.001     (0)  
   Fe+3            6.449e-32   6.428e-32   -31.191   -31.192    -0.001     (0)  
   Fe2(OH)2+4      0.000e+00   0.000e+00   -51.333   -51.336    -0.003     (0)  
   FeSO4+          0.000e+00   0.000e+00   -63.221   -63.221    -0.000     (0)  
   Fe3(OH)4+5      0.000e+00   0.000e+00   -71.876   -71.880    -0.004     (0)  
   Fe(SO4)2-       0.000e+00   0.000e+00   -97.670   -97.671    -0.000     (0)  
H(0)          4.710e-04
   H2              2.355e-04   2.355e-04    -3.628    -3.628     0.000     (0)  
O(0)          0.000e+00
   O2              0.000e+00   0.000e+00   -85.124   -85.124     0.000     (0)  
S(-2)         1.200e-11
   HS-             6.307e-12   6.305e-12   -11.200   -11.200    -0.000     (0)  
   H2S             5.525e-12   5.525e-12   -11.258   -11.258     0.000     (0)  
   S5-2            1.601e-14   1.598e-14   -13.796   -13.796    -0.001     (0)  
   S4-2            9.340e-15   9.326e-15   -14.030   -14.030    -0.001     (0)  
   S6-2            8.286e-15   8.274e-15   -14.082   -14.082    -0.001     (0)  
   S-2             7.609e-18   7.598e-18   -17.119   -17.119    -0.001     (0)  
   S3-2            3.291e-18   3.286e-18   -17.483   -17.483    -0.001     (0)  
   S2-2            1.868e-19   1.865e-19   -18.729   -18.729    -0.001     (0)  
   Fe(HS)2         1.411e-25   1.411e-25   -24.851   -24.851     0.000     (0)  
   Fe(HS)3-        9.689e-35   9.686e-35   -34.014   -34.014    -0.000     (0)  
S(6)          1.125e-36
   SO4-2           1.125e-36   1.124e-36   -35.949   -35.949    -0.001     (0)  
   HSO4-           0.000e+00   0.000e+00   -40.961   -40.961    -0.000     (0)  
   FeSO4           0.000e+00   0.000e+00   -45.099   -45.099     0.000     (0)  
   FeSO4+          0.000e+00   0.000e+00   -63.221   -63.221    -0.000     (0)  
   Fe(SO4)2-       0.000e+00   0.000e+00   -97.670   -97.671    -0.000     (0)  

------------------------------Saturation indices-------------------------------

  Phase               SI** log IAP   log K(298 K,   1 atm)

  Fe2(SO4)3      -173.81   -170.23    3.58  Fe2(SO4)3
  Fe3(OH)8        -38.01    -17.79   20.22  Fe3(OH)8
  Ferrihydrite    -15.09    -10.19    4.89  Fe(OH)3
  FeS(ppt)        -11.69    -15.60   -3.92  FeS
  Goethite        -10.69    -10.19    0.50  FeOOH
  Greigite        -49.46    -90.59  -41.13  Fe3S4
  Hematite        -16.38    -20.39   -4.01  Fe2O3
  Jarosite-H     -118.38   -130.48  -12.10  (H3O)Fe3(SO4)2(OH)6
  Lepidocrocite   -11.57    -10.19    1.37  FeOOH
  Mackinawite     -13.46    -15.60   -2.14  FeS
  Maghemite       -26.78    -20.39    6.39  Fe2O3
  Magnetite       -21.53    -17.79    3.74  Fe3O4
  Melanterite     -44.88    -47.35   -2.47  FeSO4:7H2O
  O2(g)           -82.16      0.96   83.12  O2
  pe_fix            6.76      6.76    0.00  e-
  pH_fix           -7.00     -7.00    0.00  H+
  Pyrite          -14.84    -33.32  -18.48  FeS2
  Pyrrhotite      -12.36    -15.60   -3.25  FeS
  Sulfur          -15.61    -17.72   -2.11  S

**For a gas, SI = log10(fugacity). Fugacity = pressure * phi / 1 atm.
  For ideal gases, phi = 1.

Reaction step 5.

Using solution 1.	PURE WATER
Using pure phase assemblage 1.	
Using reaction 1.	

Reaction 1.	

	  1.000e-12 moles of the following reaction have been added:

	                 Relative
	Reactant            moles

	Fe1S3                1.00000

	                 Relative
	Element             moles
	Fe                   1.00000
	S                    3.00000

-------------------------------Phase assemblage--------------------------------

                                                      Moles in assemblage
Phase               SI  log IAP  log K(T, P)   Initial       Final       Delta

Greigite        -48.78   -89.91    -41.13    0.000e+00           0   0.000e+00
Mackinawite     -13.27   -15.41     -2.14    0.000e+00           0   0.000e+00
Pyrite          -14.55   -33.03    -18.48    0.000e+00           0   0.000e+00
Pyrrhotite      -12.16   -15.41     -3.25    0.000e+00           0   0.000e+00

-----------------------------Solution composition------------------------------

	Elements           Molality       Moles

	Fe                5.000e-12   5.000e-12
	S                 1.500e-11   1.500e-11

----------------------------Description of solution----------------------------

                                       pH  =   6.999      Charge balance
                                       pe  =  -6.760      Adjusted to redox equilibrium
                        Activity of water  =   1.000
                 Ionic strength (mol/kgw)  =   1.003e-07
                       Mass of water (kg)  =   1.000e+00
                 Total alkalinity (eq/kg)  =   1.000e-11
                         Temperature (°C)  =  25.00
                  Electrical balance (eq)  =   1.261e-19
 Percent error, 100*(Cat-|An|)/(Cat+|An|)  =   0.00
                               Iterations  =   3
                                  Total H  = 1.110129e+02
                                  Total O  = 5.550622e+01

----------------------------Distribution of species----------------------------

                                               Log       Log       Log    mole V
   Species          Molality    Activity  Molality  Activity     Gamma    cm³/mol

   OH-             1.003e-07   1.002e-07    -6.999    -6.999    -0.000     (0)  
   H+              1.003e-07   1.002e-07    -6.999    -6.999    -0.000      0.00
   H2O             5.551e+01   1.000e+00     1.744    -0.000     0.000     18.07
Fe(2)         5.000e-12
   Fe+2            4.984e-12   4.977e-12   -11.302   -11.303    -0.001     (0)  
   FeOH+           1.571e-14   1.570e-14   -13.804   -13.804    -0.000     (0)  
   Fe(OH)2         1.333e-18   1.333e-18   -17.875   -17.875     0.000     (0)  
   Fe(OH)3-        4.945e-22   4.943e-22   -21.306   -21.306    -0.000     (0)  
   Fe(HS)2         2.755e-25   2.755e-25   -24.560   -24.560     0.000     (0)  
   Fe(HS)3-        2.366e-34   2.365e-34   -33.626   -33.626    -0.000     (0)  
   FeSO4           0.000e+00   0.000e+00   -44.905   -44.905     0.000     (0)  
Fe(3)         1.931e-23
   Fe(OH)2+        1.710e-23   1.710e-23   -22.767   -22.767    -0.000     (0)  
   Fe(OH)3         2.004e-24   2.004e-24   -23.698   -23.698     0.000     (0)  
   Fe(OH)4-        2.000e-25   2.000e-25   -24.699   -24.699    -0.000     (0)  
   FeOH+2          5.183e-27   5.176e-27   -26.285   -26.286    -0.001     (0)  
   Fe+3            8.061e-32   8.034e-32   -31.094   -31.095    -0.001     (0)  
   Fe2(OH)2+4      0.000e+00   0.000e+00   -51.140   -51.142    -0.003     (0)  
   FeSO4+          0.000e+00   0.000e+00   -63.027   -63.027    -0.000     (0)  
   Fe3(OH)4+5      0.000e+00   0.000e+00   -71.585   -71.589    -0.004     (0)  
   Fe(SO4)2-       0.000e+00   0.000e+00   -97.380   -97.380    -0.000     (0)  
H(0)          4.710e-04
   H2              2.355e-04   2.355e-04    -3.628    -3.628     0.000     (0)  
O(0)          0.000e+00
   O2              0.000e+00   0.000e+00   -85.124   -85.124     0.000     (0)  
S(-2)         1.500e-11
   HS-             7.884e-12   7.881e-12   -11.103   -11.103    -0.000     (0)  
   H2S             6.907e-12   6.907e-12   -11.161   -11.161     0.000     (0)  
   S5-2            2.001e-14   1.998e-14   -13.699   -13.699    -0.001     (0)  
   S4-2            1.167e-14   1.166e-14   -13.933   -13.933    -0.001     (0)  
   S6-2            1.036e-14   1.034e-14   -13.985   -13.985    -0.001     (0)  
   S-2             9.512e-18   9.497e-18   -17.022   -17.022    -0.001     (0)  
   S3-2            4.114e-18   4.108e-18   -17.386   -17.386    -0.001     (0)  
   S2-2            2.335e-19   2.331e-19   -18.632   -18.632    -0.001     (0)  
   Fe(HS)2         2.755e-25   2.755e-25   -24.560   -24.560     0.000     (0)  
   Fe(HS)3-        2.366e-34   2.365e-34   -33.626   -33.626    -0.000     (0)  
S(6)          1.407e-36
   SO4-2           1.407e-36   1.405e-36   -35.852   -35.852    -0.001     (0)  
   HSO4-           0.000e+00   0.000e+00   -40.864   -40.864    -0.000     (0)  
   FeSO4           0.000e+00   0.000e+00   -44.905   -44.905     0.000     (0)  
   FeSO4+          0.000e+00   0.000e+00   -63.027   -63.027    -0.000     (0)  
   Fe(SO4)2-       0.000e+00   0.000e+00   -97.380   -97.380    -0.000     (0)  

------------------------------Saturation indices-------------------------------

  Phase               SI** log IAP   log K(298 K,   1 atm)

  Fe2(SO4)3      -173.33   -169.75    3.58  Fe2(SO4)3
  Fe3(OH)8        -37.72    -17.50   20.22  Fe3(OH)8
  Ferrihydrite    -14.99    -10.10    4.89  Fe(OH)3
  FeS(ppt)        -11.49    -15.41   -3.92  FeS
  Goethite        -10.60    -10.10    0.50  FeOOH
  Greigite        -48.78    -89.91  -41.13  Fe3S4
  Hematite        -16.19    -20.20   -4.01  Fe2O3
  Jarosite-H     -117.89   -129.99  -12.10  (H3O)Fe3(SO4)2(OH)6
  Lepidocrocite   -11.47    -10.10    1.37  FeOOH
  Mackinawite     -13.27    -15.41   -2.14  FeS
  Maghemite       -26.58    -20.20    6.39  Fe2O3
  Magnetite       -21.24    -17.50    3.74  Fe3O4
  Melanterite     -44.69    -47.16   -2.47  FeSO4:7H2O
  O2(g)           -82.16      0.96   83.12  O2
  pe_fix            6.76      6.76    0.00  e-
  pH_fix           -7.00     -7.00    0.00  H+
  Pyrite          -14.55    -33.03  -18.48  FeS2
  Pyrrhotite      -12.16    -15.41   -3.25  FeS
  Sulfur          -15.51    -17.62   -2.11  S

**For a gas, SI = log10(fugacity). Fugacity = pressure * phi / 1 atm.
  For ideal gases, phi = 1.

Reaction step 6.

Using solution 1.	PURE WATER
Using pure phase assemblage 1.	
Using reaction 1.	

Reaction 1.	

	  1.000e-12 moles of the following reaction have been added:

	                 Relative
	Reactant            moles

	Fe1S3                1.00000

	                 Relative
	Element             moles
	Fe                   1.00000
	S                    3.00000

-------------------------------Phase assemblage--------------------------------

                                                      Moles in assemblage
Phase               SI  log IAP  log K(T, P)   Initial       Final       Delta

Greigite        -48.23   -89.36    -41.13    0.000e+00           0   0.000e+00
Mackinawite     -13.11   -15.25     -2.14    0.000e+00           0   0.000e+00
Pyrite          -14.32   -32.79    -18.48    0.000e+00           0   0.000e+00
Pyrrhotite      -12.00   -15.25     -3.25    0.000e+00           0   0.000e+00

-----------------------------Solution composition------------------------------

	Elements           Molality       Moles

	Fe                6.000e-12   6.000e-12
	S                 1.800e-11   1.800e-11

----------------------------Description of solution----------------------------

                                       pH  =   6.999      Charge balance
                                       pe  =  -6.760      Adjusted to redox equilibrium
                        Activity of water  =   1.000
                 Ionic strength (mol/kgw)  =   1.003e-07
                       Mass of water (kg)  =   1.000e+00
                 Total alkalinity (eq/kg)  =   1.200e-11
                         Temperature (°C)  =  25.00
                  Electrical balance (eq)  =   1.554e-19
 Percent error, 100*(Cat-|An|)/(Cat+|An|)  =   0.00
                               Iterations  =   3
                                  Total H  = 1.110129e+02
                                  Total O  = 5.550622e+01

----------------------------Distribution of species----------------------------

                                               Log       Log       Log    mole V
   Species          Molality    Activity  Molality  Activity     Gamma    cm³/mol

   OH-             1.003e-07   1.002e-07    -6.999    -6.999    -0.000     (0)  
   H+              1.003e-07   1.002e-07    -6.999    -6.999    -0.000      0.00
   H2O             5.551e+01   1.000e+00     1.744    -0.000     0.000     18.07
Fe(2)         6.000e-12
   Fe+2            5.981e-12   5.972e-12   -11.223   -11.224    -0.001     (0)  
   FeOH+           1.885e-14   1.884e-14   -13.725   -13.725    -0.000     (0)  
   Fe(OH)2         1.600e-18   1.600e-18   -17.796   -17.796     0.000     (0)  
   Fe(OH)3-        5.934e-22   5.931e-22   -21.227   -21.227    -0.000     (0)  
   Fe(HS)2         4.761e-25   4.761e-25   -24.322   -24.322     0.000     (0)  
   Fe(HS)3-        4.905e-34   4.903e-34   -33.309   -33.310    -0.000     (0)  
   FeSO4           0.000e+00   0.000e+00   -44.747   -44.747     0.000     (0)  
Fe(3)         2.318e-23
   Fe(OH)2+        2.053e-23   2.052e-23   -22.688   -22.688    -0.000     (0)  
   Fe(OH)3         2.405e-24   2.405e-24   -23.619   -23.619     0.000     (0)  
   Fe(OH)4-        2.401e-25   2.400e-25   -24.620   -24.620    -0.000     (0)  
   FeOH+2          6.220e-27   6.211e-27   -26.206   -26.207    -0.001     (0)  
   Fe+3            9.674e-32   9.641e-32   -31.014   -31.016    -0.001     (0)  
   Fe2(OH)2+4      0.000e+00   0.000e+00   -50.981   -50.984    -0.003     (0)  
   FeSO4+          0.000e+00   0.000e+00   -62.869   -62.869    -0.000     (0)  
   Fe3(OH)4+5      0.000e+00   0.000e+00   -71.348   -71.352    -0.004     (0)  
   Fe(SO4)2-       0.000e+00   0.000e+00   -97.142   -97.142    -0.000     (0)  
H(0)          4.710e-04
   H2              2.355e-04   2.355e-04    -3.628    -3.628     0.000     (0)  
O(0)          0.000e+00
   O2              0.000e+00   0.000e+00   -85.124   -85.124     0.000     (0)  
S(-2)         1.800e-11
   HS-             9.461e-12   9.458e-12   -11.024   -11.024    -0.000     (0)  
   H2S             8.288e-12   8.288e-12   -11.082   -11.082     0.000     (0)  
   S5-2            2.401e-14   2.398e-14   -13.620   -13.620    -0.001     (0)  
   S4-2            1.401e-14   1.399e-14   -13.854   -13.854    -0.001     (0)  
   S6-2            1.243e-14   1.241e-14   -13.906   -13.906    -0.001     (0)  
   S-2             1.141e-17   1.140e-17   -16.943   -16.943    -0.001     (0)  
   S3-2            4.937e-18   4.929e-18   -17.307   -17.307    -0.001     (0)  
   S2-2            2.802e-19   2.798e-19   -18.553   -18.553    -0.001     (0)  
   Fe(HS)2         4.761e-25   4.761e-25   -24.322   -24.322     0.000     (0)  
   Fe(HS)3-        4.905e-34   4.903e-34   -33.309   -33.310    -0.000     (0)  
S(6)          1.688e-36
   SO4-2           1.688e-36   1.686e-36   -35.773   -35.773    -0.001     (0)  
   HSO4-           0.000e+00   0.000e+00   -40.785   -40.785    -0.000     (0)  
   FeSO4           0.000e+00   0.000e+00   -44.747   -44.747     0.000     (0)  
   FeSO4+          0.000e+00   0.000e+00   -62.869   -62.869    -0.000     (0)  
   Fe(SO4)2-       0.000e+00   0.000e+00   -97.142   -97.142    -0.000     (0)  

------------------------------Saturation indices-------------------------------

  Phase               SI** log IAP   log K(298 K,   1 atm)

  Fe2(SO4)3      -172.93   -169.35    3.58  Fe2(SO4)3
  Fe3(OH)8        -37.49    -17.26   20.22  Fe3(OH)8
  Ferrihydrite    -14.91    -10.02    4.89  Fe(OH)3
  FeS(ppt)        -11.33    -15.25   -3.92  FeS
  Goethite        -10.52    -10.02    0.50  FeOOH
  Greigite        -48.23    -89.36  -41.13  Fe3S4
  Hematite        -16.03    -20.04   -4.01  Fe2O3
  Jarosite-H     -117.50   -129.60  -12.10  (H3O)Fe3(SO4)2(OH)6
  Lepidocrocite   -11.39    -10.02    1.37  FeOOH
  Mackinawite     -13.11    -15.25   -2.14  FeS
  Maghemite       -26.42    -20.04    6.39  Fe2O3
  Magnetite       -21.00    -17.26    3.74  Fe3O4
  Melanterite     -44.53    -47.00   -2.47  FeSO4:7H2O
  O2(g)           -82.16      0.96   83.12  O2
  pe_fix            6.76      6.76    0.00  e-
  pH_fix           -7.00     -7.00    0.00  H+
  Pyrite          -14.32    -32.79  -18.48  FeS2
  Pyrrhotite      -12.00    -15.25   -3.25  FeS
  Sulfur          -15.44    -17.55   -2.11  S

**For a gas, SI = log10(fugacity). Fugacity = pressure * phi / 1 atm.
  For ideal gases, phi = 1.

Reaction step 7.

Using solution 1.	PURE WATER
Using pure phase assemblage 1.	
Using reaction 1.	

Reaction 1.	

	  1.000e-12 moles of the following reaction have been added:

	                 Relative
	Reactant            moles

	Fe1S3                1.00000

	                 Relative
	Element             moles
	Fe                   1.00000
	S                    3.00000

-------------------------------Phase assemblage--------------------------------

                                                      Moles in assemblage
Phase               SI  log IAP  log K(T, P)   Initial       Final       Delta

Greigite        -47.76   -88.89    -41.13    0.000e+00           0   0.000e+00
Mackinawite     -12.98   -15.12     -2.14    0.000e+00           0   0.000e+00
Pyrite          -14.11   -32.59    -18.48    0.000e+00           0   0.000e+00
Pyrrhotite      -11.87   -15.12     -3.25    0.000e+00           0   0.000e+00

-----------------------------Solution composition------------------------------

	Elements           Molality       Moles

	Fe                7.000e-12   7.000e-12
	S                 2.100e-11   2.100e-11

----------------------------Description of solution----------------------------

                                       pH  =   6.999      Charge balance
                                       pe  =  -6.760      Adjusted to redox equilibrium
                        Activity of water  =   1.000
                 Ionic strength (mol/kgw)  =   1.003e-07
                       Mass of water (kg)  =   1.000e+00
                 Total alkalinity (eq/kg)  =   1.400e-11
                         Temperature (°C)  =  25.00
                  Electrical balance (eq)  =   1.640e-19
 Percent error, 100*(Cat-|An|)/(Cat+|An|)  =   0.00
                               Iterations  =   3
                                  Total H  = 1.110129e+02
                                  Total O  = 5.550622e+01

----------------------------Distribution of species----------------------------

                                               Log       Log       Log    mole V
   Species          Molality    Activity  Molality  Activity     Gamma    cm³/mol

   OH-             1.003e-07   1.002e-07    -6.999    -6.999    -0.000     (0)  
   H+              1.003e-07   1.002e-07    -6.999    -6.999    -0.000      0.00
   H2O             5.551e+01   1.000e+00     1.744    -0.000     0.000     18.07
Fe(2)         7.000e-12
   Fe+2            6.978e-12   6.968e-12   -11.156   -11.157    -0.001     (0)  
   FeOH+           2.199e-14   2.198e-14   -13.658   -13.658    -0.000     (0)  
   Fe(OH)2         1.867e-18   1.867e-18   -17.729   -17.729     0.000     (0)  
   Fe(OH)3-        6.922e-22   6.920e-22   -21.160   -21.160    -0.000     (0)  
   Fe(HS)2         7.560e-25   7.560e-25   -24.121   -24.121     0.000     (0)  
   Fe(HS)3-        9.087e-34   9.084e-34   -33.042   -33.042    -0.000     (0)  
   FeSO4           0.000e+00   0.000e+00   -44.613   -44.613     0.000     (0)  
Fe(3)         2.704e-23
   Fe(OH)2+        2.395e-23   2.394e-23   -22.621   -22.621    -0.000     (0)  
   Fe(OH)3         2.806e-24   2.806e-24   -23.552   -23.552     0.000     (0)  
   Fe(OH)4-        2.801e-25   2.800e-25   -24.553   -24.553    -0.000     (0)  
   FeOH+2          7.257e-27   7.246e-27   -26.139   -26.140    -0.001     (0)  
   Fe+3            1.129e-31   1.125e-31   -30.947   -30.949    -0.001     (0)  
   Fe2(OH)2+4      0.000e+00   0.000e+00   -50.847   -50.850    -0.003     (0)  
   FeSO4+          0.000e+00   0.000e+00   -62.735   -62.735    -0.000     (0)  
   Fe3(OH)4+5      0.000e+00   0.000e+00   -71.147   -71.151    -0.004     (0)  
   Fe(SO4)2-       0.000e+00   0.000e+00   -96.941   -96.941    -0.000     (0)  
H(0)          4.710e-04
   H2              2.355e-04   2.355e-04    -3.628    -3.628     0.000     (0)  
O(0)          0.000e+00
   O2              0.000e+00   0.000e+00   -85.124   -85.124     0.000     (0)  
S(-2)         2.100e-11
   HS-             1.104e-11   1.103e-11   -10.957   -10.957    -0.000     (0)  
   H2S             9.669e-12   9.669e-12   -11.015   -11.015     0.000     (0)  
   S5-2            2.801e-14   2.797e-14   -13.553   -13.553    -0.001     (0)  
   S4-2            1.634e-14   1.632e-14   -13.787   -13.787    -0.001     (0)  
   S6-2            1.450e-14   1.448e-14   -13.839   -13.839    -0.001     (0)  
   S-2             1.332e-17   1.330e-17   -16.876   -16.876    -0.001     (0)  
   S3-2            5.759e-18   5.751e-18   -17.240   -17.240    -0.001     (0)  
   S2-2            3.269e-19   3.264e-19   -18.486   -18.486    -0.001     (0)  
   Fe(HS)2         7.560e-25   7.560e-25   -24.121   -24.121     0.000     (0)  
   Fe(HS)3-        9.087e-34   9.084e-34   -33.042   -33.042    -0.000     (0)  
S(6)          1.970e-36
   SO4-2           1.970e-36   1.967e-36   -35.706   -35.706    -0.001     (0)  
   HSO4-           0.000e+00   0.000e+00   -40.718   -40.718    -0.000     (0)  
   FeSO4           0.000e+00   0.000e+00   -44.613   -44.613     0.000     (0)  
   FeSO4+          0.000e+00   0.000e+00   -62.735   -62.735    -0.000     (0)  
   Fe(SO4)2-       0.000e+00   0.000e+00   -96.941   -96.941    -0.000     (0)  

------------------------------Saturation indices-------------------------------

  Phase               SI** log IAP   log K(298 K,   1 atm)

  Fe2(SO4)3      -172.60   -169.02    3.58  Fe2(SO4)3
  Fe3(OH)8        -37.28    -17.06   20.22  Fe3(OH)8
  Ferrihydrite    -14.84     -9.95    4.89  Fe(OH)3
  FeS(ppt)        -11.20    -15.12   -3.92  FeS
  Goethite        -10.45     -9.95    0.50  FeOOH
  Greigite        -47.76    -88.89  -41.13  Fe3S4
  Hematite        -15.90    -19.90   -4.01  Fe2O3
  Jarosite-H     -117.16   -129.26  -12.10  (H3O)Fe3(SO4)2(OH)6
  Lepidocrocite   -11.32     -9.95    1.37  FeOOH
  Mackinawite     -12.98    -15.12   -2.14  FeS
  Maghemite       -26.29    -19.90    6.39  Fe2O3
  Magnetite       -20.80    -17.06    3.74  Fe3O4
  Melanterite     -44.39    -46.86   -2.47  FeSO4:7H2O
  O2(g)           -82.16      0.96   83.12  O2
  pe_fix            6.76      6.76    0.00  e-
  pH_fix           -7.00     -7.00    0.00  H+
  Pyrite          -14.11    -32.59  -18.48  FeS2
  Pyrrhotite      -11.87    -15.12   -3.25  FeS
  Sulfur          -15.37    -17.48   -2.11  S

**For a gas, SI = log10(fugacity). Fugacity = pressure * phi / 1 atm.
  For ideal gases, phi = 1.

Reaction step 8.

Using solution 1.	PURE WATER
Using pure phase assemblage 1.	
Using reaction 1.	

Reaction 1.	

	  1.000e-12 moles of the following reaction have been added:

	                 Relative
	Reactant            moles

	Fe1S3                1.00000

	                 Relative
	Element             moles
	Fe                   1.00000
	S                    3.00000

-------------------------------Phase assemblage--------------------------------

                                                      Moles in assemblage
Phase               SI  log IAP  log K(T, P)   Initial       Final       Delta

Greigite        -47.35   -88.48    -41.13    0.000e+00           0   0.000e+00
Mackinawite     -12.86   -15.00     -2.14    0.000e+00           0   0.000e+00
Pyrite          -13.94   -32.42    -18.48    0.000e+00           0   0.000e+00
Pyrrhotite      -11.75   -15.00     -3.25    0.000e+00           0   0.000e+00

-----------------------------Solution composition------------------------------

	Elements           Molality       Moles

	Fe                8.000e-12   8.000e-12
	S                 2.400e-11   2.400e-11

----------------------------Description of solution----------------------------

                                       pH  =   6.999      Charge balance
                                       pe  =  -6.760      Adjusted to redox equilibrium
                        Activity of water  =   1.000
                 Ionic strength (mol/kgw)  =   1.003e-07
                       Mass of water (kg)  =   1.000e+00
                 Total alkalinity (eq/kg)  =   1.600e-11
                         Temperature (°C)  =  25.00
                  Electrical balance (eq)  =   1.669e-19
 Percent error, 100*(Cat-|An|)/(Cat+|An|)  =   0.00
                               Iterations  =   3
                                  Total H  = 1.110129e+02
                                  Total O  = 5.550622e+01

----------------------------Distribution of species----------------------------

                                               Log       Log       Log    mole V
   Species          Molality    Activity  Molality  Activity     Gamma    cm³/mol

   OH-             1.003e-07   1.002e-07    -6.999    -6.999    -0.000     (0)  
   H+              1.003e-07   1.002e-07    -6.999    -6.999    -0.000      0.00
   H2O             5.551e+01   1.000e+00     1.744    -0.000     0.000     18.07
Fe(2)         8.000e-12
   Fe+2            7.975e-12   7.963e-12   -11.098   -11.099    -0.001     (0)  
   FeOH+           2.513e-14   2.512e-14   -13.600   -13.600    -0.000     (0)  
   Fe(OH)2         2.133e-18   2.133e-18   -17.671   -17.671     0.000     (0)  
   Fe(OH)3-        7.911e-22   7.909e-22   -21.102   -21.102    -0.000     (0)  
   Fe(HS)2         1.129e-24   1.129e-24   -23.947   -23.947     0.000     (0)  
   Fe(HS)3-        1.550e-33   1.550e-33   -32.810   -32.810    -0.000     (0)  
   FeSO4           0.000e+00   0.000e+00   -44.497   -44.497     0.000     (0)  
Fe(3)         3.090e-23
   Fe(OH)2+        2.737e-23   2.736e-23   -22.563   -22.563    -0.000     (0)  
   Fe(OH)3         3.207e-24   3.207e-24   -23.494   -23.494     0.000     (0)  
   Fe(OH)4-        3.201e-25   3.200e-25   -24.495   -24.495    -0.000     (0)  
   FeOH+2          8.293e-27   8.281e-27   -26.081   -26.082    -0.001     (0)  
   Fe+3            1.290e-31   1.285e-31   -30.889   -30.891    -0.001     (0)  
   Fe2(OH)2+4      0.000e+00   0.000e+00   -50.731   -50.734    -0.003     (0)  
   FeSO4+          0.000e+00   0.000e+00   -62.619   -62.619    -0.000     (0)  
   Fe3(OH)4+5      0.000e+00   0.000e+00   -70.973   -70.977    -0.004     (0)  
   Fe(SO4)2-       0.000e+00   0.000e+00   -96.767   -96.767    -0.000     (0)  
H(0)          4.710e-04
   H2              2.355e-04   2.355e-04    -3.628    -3.628     0.000     (0)  
O(0)          0.000e+00
   O2              0.000e+00   0.000e+00   -85.124   -85.124     0.000     (0)  
S(-2)         2.400e-11
   HS-             1.261e-11   1.261e-11   -10.899   -10.899    -0.000     (0)  
   H2S             1.105e-11   1.105e-11   -10.957   -10.957     0.000     (0)  
   S5-2            3.202e-14   3.197e-14   -13.495   -13.495    -0.001     (0)  
   S4-2            1.868e-14   1.865e-14   -13.729   -13.729    -0.001     (0)  
   S6-2            1.657e-14   1.655e-14   -13.781   -13.781    -0.001     (0)  
   S-2             1.522e-17   1.520e-17   -16.818   -16.818    -0.001     (0)  
   S3-2            6.582e-18   6.573e-18   -17.182   -17.182    -0.001     (0)  
   S2-2            3.736e-19   3.730e-19   -18.428   -18.428    -0.001     (0)  
   Fe(HS)2         1.129e-24   1.129e-24   -23.947   -23.947     0.000     (0)  
   Fe(HS)3-        1.550e-33   1.550e-33   -32.810   -32.810    -0.000     (0)  
S(6)          2.251e-36
   SO4-2           2.251e-36   2.248e-36   -35.648   -35.648    -0.001     (0)  
   HSO4-           0.000e+00   0.000e+00   -40.660   -40.660    -0.000     (0)  
   FeSO4           0.000e+00   0.000e+00   -44.497   -44.497     0.000     (0)  
   FeSO4+          0.000e+00   0.000e+00   -62.619   -62.619    -0.000     (0)  
   Fe(SO4)2-       0.000e+00   0.000e+00   -96.767   -96.767    -0.000     (0)  

------------------------------Saturation indices-------------------------------

  Phase               SI** log IAP   log K(298 K,   1 atm)

  Fe2(SO4)3      -172.31   -168.73    3.58  Fe2(SO4)3
  Fe3(OH)8        -37.11    -16.89   20.22  Fe3(OH)8
  Ferrihydrite    -14.78     -9.89    4.89  Fe(OH)3
  FeS(ppt)        -11.08    -15.00   -3.92  FeS
  Goethite        -10.39     -9.89    0.50  FeOOH
  Greigite        -47.35    -88.48  -41.13  Fe3S4
  Hematite        -15.78    -19.79   -4.01  Fe2O3
  Jarosite-H     -116.87   -128.97  -12.10  (H3O)Fe3(SO4)2(OH)6
  Lepidocrocite   -11.26     -9.89    1.37  FeOOH
  Mackinawite     -12.86    -15.00   -2.14  FeS
  Maghemite       -26.17    -19.79    6.39  Fe2O3
  Magnetite       -20.63    -16.89    3.74  Fe3O4
  Melanterite     -44.28    -46.75   -2.47  FeSO4:7H2O
  O2(g)           -82.16      0.96   83.12  O2
  pe_fix            6.76      6.76    0.00  e-
  pH_fix           -7.00     -7.00    0.00  H+
  Pyrite          -13.94    -32.42  -18.48  FeS2
  Pyrrhotite      -11.75    -15.00   -3.25  FeS
  Sulfur          -15.31    -17.42   -2.11  S

**For a gas, SI = log10(fugacity). Fugacity = pressure * phi / 1 atm.
  For ideal gases, phi = 1.

Reaction step 9.

Using solution 1.	PURE WATER
Using pure phase assemblage 1.	
Using reaction 1.	

Reaction 1.	

	  1.000e-12 moles of the following reaction have been added:

	                 Relative
	Reactant            moles

	Fe1S3                1.00000

	                 Relative
	Element             moles
	Fe                   1.00000
	S                    3.00000

-------------------------------Phase assemblage--------------------------------

                                                      Moles in assemblage
Phase               SI  log IAP  log K(T, P)   Initial       Final       Delta

Greigite        -47.00   -88.12    -41.13    0.000e+00           0   0.000e+00
Mackinawite     -12.76   -14.90     -2.14    0.000e+00           0   0.000e+00
Pyrite          -13.79   -32.27    -18.48    0.000e+00           0   0.000e+00
Pyrrhotite      -11.65   -14.90     -3.25    0.000e+00           0   0.000e+00

-----------------------------Solution composition------------------------------

	Elements           Molality       Moles

	Fe                9.000e-12   9.000e-12
	S                 2.700e-11   2.700e-11

----------------------------Description of solution----------------------------

                                       pH  =   6.999      Charge balance
                                       pe  =  -6.760      Adjusted to redox equilibrium
                        Activity of water  =   1.000
                 Ionic strength (mol/kgw)  =   1.003e-07
                       Mass of water (kg)  =   1.000e+00
                 Total alkalinity (eq/kg)  =   1.800e-11
                         Temperature (°C)  =  25.00
                  Electrical balance (eq)  =   1.681e-19
 Percent error, 100*(Cat-|An|)/(Cat+|An|)  =   0.00
                               Iterations  =   3
                                  Total H  = 1.110129e+02
                                  Total O  = 5.550622e+01

----------------------------Distribution of species----------------------------

                                               Log       Log       Log    mole V
   Species          Molality    Activity  Molality  Activity     Gamma    cm³/mol

   OH-             1.003e-07   1.002e-07    -6.999    -6.999    -0.000     (0)  
   H+              1.003e-07   1.002e-07    -6.999    -6.999    -0.000      0.00
   H2O             5.551e+01   1.000e+00     1.744    -0.000     0.000     18.07
Fe(2)         9.000e-12
   Fe+2            8.972e-12   8.958e-12   -11.047   -11.048    -0.001     (0)  
   FeOH+           2.827e-14   2.826e-14   -13.549   -13.549    -0.000     (0)  
   Fe(OH)2         2.400e-18   2.400e-18   -17.620   -17.620     0.000     (0)  
   Fe(OH)3-        8.900e-22   8.897e-22   -21.051   -21.051    -0.000     (0)  
   Fe(HS)2         1.607e-24   1.607e-24   -23.794   -23.794     0.000     (0)  
   Fe(HS)3-        2.483e-33   2.482e-33   -32.605   -32.605    -0.000     (0)  
   FeSO4           0.000e+00   0.000e+00   -44.395   -44.395     0.000     (0)  
Fe(3)         3.477e-23
   Fe(OH)2+        3.079e-23   3.078e-23   -22.512   -22.512    -0.000     (0)  
   Fe(OH)3         3.608e-24   3.608e-24   -23.443   -23.443     0.000     (0)  
   Fe(OH)4-        3.601e-25   3.600e-25   -24.444   -24.444    -0.000     (0)  
   FeOH+2          9.330e-27   9.316e-27   -26.030   -26.031    -0.001     (0)  
   Fe+3            1.451e-31   1.446e-31   -30.838   -30.840    -0.001     (0)  
   Fe2(OH)2+4      0.000e+00   0.000e+00   -50.629   -50.632    -0.003     (0)  
   FeSO4+          0.000e+00   0.000e+00   -62.517   -62.517    -0.000     (0)  
   Fe3(OH)4+5      0.000e+00   0.000e+00   -70.819   -70.823    -0.004     (0)  
   Fe(SO4)2-       0.000e+00   0.000e+00   -96.614   -96.614    -0.000     (0)  
H(0)          4.710e-04
   H2              2.355e-04   2.355e-04    -3.628    -3.628     0.000     (0)  
O(0)          0.000e+00
   O2              0.000e+00   0.000e+00   -85.124   -85.124     0.000     (0)  
S(-2)         2.700e-11
   HS-             1.419e-11   1.419e-11   -10.848   -10.848    -0.000     (0)  
   H2S             1.243e-11   1.243e-11   -10.905   -10.905     0.000     (0)  
   S5-2            3.602e-14   3.597e-14   -13.443   -13.444    -0.001     (0)  
   S4-2            2.102e-14   2.098e-14   -13.677   -13.678    -0.001     (0)  
   S6-2            1.864e-14   1.862e-14   -13.729   -13.730    -0.001     (0)  
   S-2             1.712e-17   1.710e-17   -16.766   -16.767    -0.001     (0)  
   S3-2            7.405e-18   7.394e-18   -17.130   -17.131    -0.001     (0)  
   S2-2            4.203e-19   4.196e-19   -18.376   -18.377    -0.001     (0)  
   Fe(HS)2         1.607e-24   1.607e-24   -23.794   -23.794     0.000     (0)  
   Fe(HS)3-        2.483e-33   2.482e-33   -32.605   -32.605    -0.000     (0)  
S(6)          2.532e-36
   SO4-2           2.532e-36   2.529e-36   -35.596   -35.597    -0.001     (0)  
   HSO4-           0.000e+00   0.000e+00   -40.609   -40.609    -0.000     (0)  
   FeSO4           0.000e+00   0.000e+00   -44.395   -44.395     0.000     (0)  
   FeSO4+          0.000e+00   0.000e+00   -62.517   -62.517    -0.000     (0)  
   Fe(SO4)2-       0.000e+00   0.000e+00   -96.614   -96.614    -0.000     (0)  

------------------------------Saturation indices-------------------------------

  Phase               SI** log IAP   log K(298 K,   1 atm)

  Fe2(SO4)3      -172.05   -168.47    3.58  Fe2(SO4)3
  Fe3(OH)8        -36.96    -16.74   20.22  Fe3(OH)8
  Ferrihydrite    -14.73     -9.84    4.89  Fe(OH)3
  FeS(ppt)        -10.98    -14.90   -3.92  FeS
  Goethite        -10.34     -9.84    0.50  FeOOH
  Greigite        -47.00    -88.12  -41.13  Fe3S4
  Hematite        -15.68    -19.69   -4.01  Fe2O3
  Jarosite-H     -116.62   -128.72  -12.10  (H3O)Fe3(SO4)2(OH)6
  Lepidocrocite   -11.21     -9.84    1.37  FeOOH
  Mackinawite     -12.76    -14.90   -2.14  FeS
  Maghemite       -26.07    -19.69    6.39  Fe2O3
  Magnetite       -20.47    -16.74    3.74  Fe3O4
  Melanterite     -44.17    -46.64   -2.47  FeSO4:7H2O
  O2(g)           -82.16      0.96   83.12  O2
  pe_fix            6.76      6.76    0.00  e-
  pH_fix           -7.00     -7.00    0.00  H+
  Pyrite          -13.79    -32.27  -18.48  FeS2
  Pyrrhotite      -11.65    -14.90   -3.25  FeS
  Sulfur          -15.26    -17.37   -2.11  S

**For a gas, SI = log10(fugacity). Fugacity = pressure * phi / 1 atm.
  For ideal gases, phi = 1.

Reaction step 10.

Using solution 1.	PURE WATER
Using pure phase assemblage 1.	
Using reaction 1.	

Reaction 1.	

	  1.000e-12 moles of the following reaction have been added:

	                 Relative
	Reactant            moles

	Fe1S3                1.00000

	                 Relative
	Element             moles
	Fe                   1.00000
	S                    3.00000

-------------------------------Phase assemblage--------------------------------

                                                      Moles in assemblage
Phase               SI  log IAP  log K(T, P)   Initial       Final       Delta

Greigite        -46.68   -87.80    -41.13    0.000e+00           0   0.000e+00
Mackinawite     -12.67   -14.81     -2.14    0.000e+00           0   0.000e+00
Pyrite          -13.65   -32.13    -18.48    0.000e+00           0   0.000e+00
Pyrrhotite      -11.56   -14.81     -3.25    0.000e+00           0   0.000e+00

-----------------------------Solution composition------------------------------

	Elements           Molality       Moles

	Fe                1.000e-11   1.000e-11
	S                 3.000e-11   3.000e-11

----------------------------Description of solution----------------------------

                                       pH  =   6.999      Charge balance
                                       pe  =  -6.760      Adjusted to redox equilibrium
                        Activity of water  =   1.000
                 Ionic strength (mol/kgw)  =   1.003e-07
                       Mass of water (kg)  =   1.000e+00
                 Total alkalinity (eq/kg)  =   2.000e-11
                         Temperature (°C)  =  25.00
                  Electrical balance (eq)  =   1.685e-19
 Percent error, 100*(Cat-|An|)/(Cat+|An|)  =   0.00
                               Iterations  =   3
                                  Total H  = 1.110129e+02
                                  Total O  = 5.550622e+01

----------------------------Distribution of species----------------------------

                                               Log       Log       Log    mole V
   Species          Molality    Activity  Molality  Activity     Gamma    cm³/mol

   OH-             1.003e-07   1.002e-07    -6.999    -6.999    -0.000     (0)  
   H+              1.003e-07   1.002e-07    -6.999    -6.999    -0.000      0.00
   H2O             5.551e+01   1.000e+00     1.744    -0.000     0.000     18.07
Fe(2)         1.000e-11
   Fe+2            9.969e-12   9.954e-12   -11.001   -11.002    -0.001     (0)  
   FeOH+           3.142e-14   3.140e-14   -13.503   -13.503    -0.000     (0)  
   Fe(OH)2         2.667e-18   2.667e-18   -17.574   -17.574     0.000     (0)  
   Fe(OH)3-        9.889e-22   9.886e-22   -21.005   -21.005    -0.000     (0)  
   Fe(HS)2         2.204e-24   2.204e-24   -23.657   -23.657     0.000     (0)  
   Fe(HS)3-        3.785e-33   3.783e-33   -32.422   -32.422    -0.000     (0)  
   FeSO4           0.000e+00   0.000e+00   -44.303   -44.303     0.000     (0)  
Fe(3)         3.863e-23
   Fe(OH)2+        3.421e-23   3.420e-23   -22.466   -22.466    -0.000     (0)  
   Fe(OH)3         4.009e-24   4.009e-24   -23.397   -23.397     0.000     (0)  
   Fe(OH)4-        4.001e-25   4.000e-25   -24.398   -24.398    -0.000     (0)  
   FeOH+2          1.037e-26   1.035e-26   -25.984   -25.985    -0.001     (0)  
   Fe+3            1.612e-31   1.607e-31   -30.793   -30.794    -0.001     (0)  
   Fe2(OH)2+4      0.000e+00   0.000e+00   -50.537   -50.540    -0.003     (0)  
   FeSO4+          0.000e+00   0.000e+00   -62.425   -62.425    -0.000     (0)  
   Fe3(OH)4+5      0.000e+00   0.000e+00   -70.682   -70.686    -0.004     (0)  
   Fe(SO4)2-       0.000e+00   0.000e+00   -96.477   -96.477    -0.000     (0)  
H(0)          4.710e-04
   H2              2.355e-04   2.355e-04    -3.628    -3.628     0.000     (0)  
O(0)          0.000e+00
   O2              0.000e+00   0.000e+00   -85.124   -85.124     0.000     (0)  
S(-2)         3.000e-11
   HS-             1.577e-11   1.576e-11   -10.802   -10.802    -0.000     (0)  
   H2S             1.381e-11   1.381e-11   -10.860   -10.860     0.000     (0)  
   S5-2            4.002e-14   3.996e-14   -13.398   -13.398    -0.001     (0)  
   S4-2            2.335e-14   2.332e-14   -13.632   -13.632    -0.001     (0)  
   S6-2            2.072e-14   2.068e-14   -13.684   -13.684    -0.001     (0)  
   S-2             1.902e-17   1.900e-17   -16.721   -16.721    -0.001     (0)  
   S3-2            8.228e-18   8.216e-18   -17.085   -17.085    -0.001     (0)  
   S2-2            4.670e-19   4.663e-19   -18.331   -18.331    -0.001     (0)  
   Fe(HS)2         2.204e-24   2.204e-24   -23.657   -23.657     0.000     (0)  
   Fe(HS)3-        3.785e-33   3.783e-33   -32.422   -32.422    -0.000     (0)  
S(6)          2.814e-36
   SO4-2           2.814e-36   2.810e-36   -35.551   -35.551    -0.001     (0)  
   HSO4-           0.000e+00   0.000e+00   -40.563   -40.563    -0.000     (0)  
   FeSO4           0.000e+00   0.000e+00   -44.303   -44.303     0.000     (0)  
   FeSO4+          0.000e+00   0.000e+00   -62.425   -62.425    -0.000     (0)  
   Fe(SO4)2-       0.000e+00   0.000e+00   -96.477   -96.477    -0.000     (0)  

------------------------------Saturation indices-------------------------------

  Phase               SI** log IAP   log K(298 K,   1 atm)

  Fe2(SO4)3      -171.82   -168.24    3.58  Fe2(SO4)3
  Fe3(OH)8        -36.82    -16.60   20.22  Fe3(OH)8
  Ferrihydrite    -14.69     -9.80    4.89  Fe(OH)3
  FeS(ppt)        -10.89    -14.81   -3.92  FeS
  Goethite        -10.30     -9.80    0.50  FeOOH
  Greigite        -46.68    -87.80  -41.13  Fe3S4
  Hematite        -15.59    -19.59   -4.01  Fe2O3
  Jarosite-H     -116.39   -128.49  -12.10  (H3O)Fe3(SO4)2(OH)6
  Lepidocrocite   -11.17     -9.80    1.37  FeOOH
  Mackinawite     -12.67    -14.81   -2.14  FeS
  Maghemite       -25.98    -19.59    6.39  Fe2O3
  Magnetite       -20.33    -16.60    3.74  Fe3O4
  Melanterite     -44.08    -46.55   -2.47  FeSO4:7H2O
  O2(g)           -82.16      0.96   83.12  O2
  pe_fix            6.76      6.76    0.00  e-
  pH_fix           -7.00     -7.00    0.00  H+
  Pyrite          -13.65    -32.13  -18.48  FeS2
  Pyrrhotite      -11.56    -14.81   -3.25  FeS
  Sulfur          -15.21    -17.32   -2.11  S

**For a gas, SI = log10(fugacity). Fugacity = pressure * phi / 1 atm.
  For ideal gases, phi = 1.

Reaction step 11.

Using solution 1.	PURE WATER
Using pure phase assemblage 1.	
Using reaction 1.	

Reaction 1.	

	  1.000e-11 moles of the following reaction have been added:

	                 Relative
	Reactant            moles

	Fe1S3                1.00000

	                 Relative
	Element             moles
	Fe                   1.00000
	S                    3.00000

-------------------------------Phase assemblage--------------------------------

                                                      Moles in assemblage
Phase               SI  log IAP  log K(T, P)   Initial       Final       Delta

Greigite        -44.57   -85.70    -41.13    0.000e+00           0   0.000e+00
Mackinawite     -12.07   -14.20     -2.14    0.000e+00           0   0.000e+00
Pyrite          -12.75   -31.23    -18.48    0.000e+00           0   0.000e+00
Pyrrhotite      -10.96   -14.20     -3.25    0.000e+00           0   0.000e+00

-----------------------------Solution composition------------------------------

	Elements           Molality       Moles

	Fe                2.000e-11   2.000e-11
	S                 6.000e-11   6.000e-11

----------------------------Description of solution----------------------------

                                       pH  =   6.999      Charge balance
                                       pe  =  -6.760      Adjusted to redox equilibrium
                        Activity of water  =   1.000
                 Ionic strength (mol/kgw)  =   1.003e-07
                       Mass of water (kg)  =   1.000e+00
                 Total alkalinity (eq/kg)  =   4.000e-11
                         Temperature (°C)  =  25.00
                  Electrical balance (eq)  =   1.684e-19
 Percent error, 100*(Cat-|An|)/(Cat+|An|)  =   0.00
                               Iterations  =   5
                                  Total H  = 1.110129e+02
                                  Total O  = 5.550622e+01

----------------------------Distribution of species----------------------------

                                               Log       Log       Log    mole V
   Species          Molality    Activity  Molality  Activity     Gamma    cm³/mol

   OH-             1.003e-07   1.002e-07    -6.999    -6.999    -0.000     (0)  
   H+              1.003e-07   1.002e-07    -6.999    -6.999    -0.000      0.00
   H2O             5.551e+01   1.000e+00     1.744    -0.000     0.000     18.07
Fe(2)         2.000e-11
   Fe+2            1.994e-11   1.991e-11   -10.700   -10.701    -0.001     (0)  
   FeOH+           6.283e-14   6.281e-14   -13.202   -13.202    -0.000     (0)  
   Fe(OH)2         5.334e-18   5.334e-18   -17.273   -17.273     0.000     (0)  
   Fe(OH)3-        1.978e-21   1.977e-21   -20.704   -20.704    -0.000     (0)  
   Fe(HS)2         1.763e-23   1.763e-23   -22.754   -22.754     0.000     (0)  
   Fe(HS)3-        6.056e-32   6.054e-32   -31.218   -31.218    -0.000     (0)  
   FeSO4           0.000e+00   0.000e+00   -43.701   -43.701     0.000     (0)  
Fe(3)         7.726e-23
   Fe(OH)2+        6.842e-23   6.840e-23   -22.165   -22.165    -0.000     (0)  
   Fe(OH)3         8.018e-24   8.018e-24   -23.096   -23.096     0.000     (0)  
   Fe(OH)4-        8.003e-25   8.000e-25   -24.097   -24.097    -0.000     (0)  
   FeOH+2          2.073e-26   2.070e-26   -25.683   -25.684    -0.001     (0)  
   Fe+3            3.224e-31   3.214e-31   -30.492   -30.493    -0.001     (0)  
   Fe2(OH)2+4      0.000e+00   0.000e+00   -49.935   -49.938    -0.003     (0)  
   FeSO4+          0.000e+00   0.000e+00   -61.823   -61.823    -0.000     (0)  
   Fe3(OH)4+5      0.000e+00   0.000e+00   -69.779   -69.783    -0.004     (0)  
   Fe(SO4)2-       0.000e+00   0.000e+00   -95.573   -95.574    -0.000     (0)  
H(0)          4.710e-04
   H2              2.355e-04   2.355e-04    -3.628    -3.628     0.000     (0)  
O(0)          0.000e+00
   O2              0.000e+00   0.000e+00   -85.124   -85.124     0.000     (0)  
S(-2)         6.000e-11
   HS-             3.154e-11   3.153e-11   -10.501   -10.501    -0.000     (0)  
   H2S             2.763e-11   2.763e-11   -10.559   -10.559     0.000     (0)  
   S5-2            8.004e-14   7.993e-14   -13.097   -13.097    -0.001     (0)  
   S4-2            4.670e-14   4.663e-14   -13.331   -13.331    -0.001     (0)  
   S6-2            4.143e-14   4.137e-14   -13.383   -13.383    -0.001     (0)  
   S-2             3.805e-17   3.799e-17   -16.420   -16.420    -0.001     (0)  
   S3-2            1.646e-17   1.643e-17   -16.784   -16.784    -0.001     (0)  
   S2-2            9.340e-19   9.326e-19   -18.030   -18.030    -0.001     (0)  
   Fe(HS)2         1.763e-23   1.763e-23   -22.754   -22.754     0.000     (0)  
   Fe(HS)3-        6.056e-32   6.054e-32   -31.218   -31.218    -0.000     (0)  
S(6)          5.628e-36
   SO4-2           5.628e-36   5.619e-36   -35.250   -35.250    -0.001     (0)  
   HSO4-           0.000e+00   0.000e+00   -40.262   -40.262    -0.000     (0)  
   FeSO4           0.000e+00   0.000e+00   -43.701   -43.701     0.000     (0)  
   FeSO4+          0.000e+00   0.000e+00   -61.823   -61.823    -0.000     (0)  
   Fe(SO4)2-       0.000e+00   0.000e+00   -95.573   -95.574    -0.000     (0)  

------------------------------Saturation indices-------------------------------

  Phase               SI** log IAP   log K(298 K,   1 atm)

  Fe2(SO4)3      -170.32   -166.74    3.58  Fe2(SO4)3
  Fe3(OH)8        -35.92    -15.69   20.22  Fe3(OH)8
  Ferrihydrite    -14.39     -9.50    4.89  Fe(OH)3
  FeS(ppt)        -10.29    -14.20   -3.92  FeS
  Goethite        -10.00     -9.50    0.50  FeOOH
  Greigite        -44.57    -85.70  -41.13  Fe3S4
  Hematite        -14.98    -18.99   -4.01  Fe2O3
  Jarosite-H     -114.88   -126.98  -12.10  (H3O)Fe3(SO4)2(OH)6
  Lepidocrocite   -10.87     -9.50    1.37  FeOOH
  Mackinawite     -12.07    -14.20   -2.14  FeS
  Maghemite       -25.38    -18.99    6.39  Fe2O3
  Magnetite       -19.43    -15.69    3.74  Fe3O4
  Melanterite     -43.48    -45.95   -2.47  FeSO4:7H2O
  O2(g)           -82.16      0.96   83.12  O2
  pe_fix            6.76      6.76    0.00  e-
  pH_fix           -7.00     -7.00    0.00  H+
  Pyrite          -12.75    -31.23  -18.48  FeS2
  Pyrrhotite      -10.96    -14.20   -3.25  FeS
  Sulfur          -14.91    -17.02   -2.11  S

**For a gas, SI = log10(fugacity). Fugacity = pressure * phi / 1 atm.
  For ideal gases, phi = 1.

Reaction step 12.

Using solution 1.	PURE WATER
Using pure phase assemblage 1.	
Using reaction 1.	

Reaction 1.	

	  1.000e-11 moles of the following reaction have been added:

	                 Relative
	Reactant            moles

	Fe1S3                1.00000

	                 Relative
	Element             moles
	Fe                   1.00000
	S                    3.00000

-------------------------------Phase assemblage--------------------------------

                                                      Moles in assemblage
Phase               SI  log IAP  log K(T, P)   Initial       Final       Delta

Greigite        -43.34   -84.46    -41.13    0.000e+00           0   0.000e+00
Mackinawite     -11.71   -13.85     -2.14    0.000e+00           0   0.000e+00
Pyrite          -12.22   -30.70    -18.48    0.000e+00           0   0.000e+00
Pyrrhotite      -10.61   -13.85     -3.25    0.000e+00           0   0.000e+00

-----------------------------Solution composition------------------------------

	Elements           Molality       Moles

	Fe                3.000e-11   3.000e-11
	S                 9.000e-11   9.000e-11

----------------------------Description of solution----------------------------

                                       pH  =   6.999      Charge balance
                                       pe  =  -6.760      Adjusted to redox equilibrium
                        Activity of water  =   1.000
                 Ionic strength (mol/kgw)  =   1.004e-07
                       Mass of water (kg)  =   1.000e+00
                 Total alkalinity (eq/kg)  =   6.000e-11
[...]
  For ideal gases, phi = 1.

Reaction step 108.

Using solution 1.	PURE WATER
Using pure phase assemblage 1.	
Using reaction 1.	

Reaction 1.	

	  1.000e-02 moles of the following reaction have been added:

	                 Relative
	Reactant            moles

	Fe3S1                1.00000

	                 Relative
	Element             moles
	Fe                   3.00000
	S                    1.00000

-------------------------------Phase assemblage--------------------------------

                                                      Moles in assemblage
Phase               SI  log IAP  log K(T, P)   Initial       Final       Delta

Greigite        -19.37   -60.49    -41.13    0.000e+00           0   0.000e+00
Mackinawite      -1.11    -3.25     -2.14    0.000e+00           0   0.000e+00
Pyrite           -9.46   -27.94    -18.48    0.000e+00           0   0.000e+00
Pyrrhotite        0.00    -3.25     -3.25    8.111e-02   9.111e-02   1.000e-02

-----------------------------Solution composition------------------------------

	Elements           Molality       Moles

	Fe                1.834e-01   1.822e-01
	S                 1.405e-09   1.396e-09

----------------------------Description of solution----------------------------

                                       pH  =  10.790      Charge balance
                                       pe  = -12.001      Adjusted to redox equilibrium
                        Activity of water  =   0.994
                 Ionic strength (mol/kgw)  =   8.842e-02
                       Mass of water (kg)  =   9.934e-01
                 Total alkalinity (eq/kg)  =   3.669e-01
                         Temperature (°C)  =  25.00
                  Electrical balance (eq)  =  -1.123e-11
 Percent error, 100*(Cat-|An|)/(Cat+|An|)  =  -0.00
                               Iterations  =   5
                                  Total H  = 1.110129e+02
                                  Total O  = 5.550622e+01

----------------------------Distribution of species----------------------------

                                               Log       Log       Log    mole V
   Species          Molality    Activity  Molality  Activity     Gamma    cm³/mol

   OH-             7.979e-04   6.151e-04    -3.098    -3.211    -0.113     (0)  
   H+              1.955e-11   1.623e-11   -10.709   -10.790    -0.081      0.00
   H2O             5.551e+01   9.937e-01     1.744    -0.003     0.000     18.07
Fe(2)         1.834e-01
   Fe(OH)3-        8.090e-02   6.398e-02    -1.092    -1.194    -0.102     (0)  
   FeOH+           6.824e-02   5.397e-02    -1.166    -1.268    -0.102     (0)  
   Fe(OH)2         2.756e-02   2.813e-02    -1.560    -1.551     0.009     (0)  
   Fe+2            6.725e-03   2.788e-03    -2.172    -2.555    -0.382     (0)  
   Fe(HS)2         2.664e-17   2.719e-17   -16.574   -16.566     0.009     (0)  
   Fe(HS)3-        1.243e-26   9.793e-27   -25.906   -26.009    -0.103     (0)  
   FeSO4           0.000e+00   0.000e+00   -44.367   -44.358     0.009     (0)  
Fe(3)         1.147e-06
   Fe(OH)4-        1.146e-06   9.118e-07    -5.941    -6.040    -0.099     (0)  
   Fe(OH)3         1.459e-09   1.489e-09    -8.836    -8.827     0.009     (0)  
   Fe(OH)2+        2.602e-12   2.070e-12   -11.585   -11.684    -0.099     (0)  
   FeOH+2          2.610e-19   1.021e-19   -18.583   -18.991    -0.408     (0)  
   Fe+3            1.376e-27   2.583e-28   -26.861   -27.588    -0.726     (0)  
   Fe2(OH)2+4      1.265e-35   2.807e-37   -34.898   -36.552    -1.654     (0)  
   Fe3(OH)4+5      0.000e+00   0.000e+00   -43.332   -45.916    -2.584     (0)  
   FeSO4+          0.000e+00   0.000e+00   -67.619   -67.721    -0.102     (0)  
   Fe(SO4)2-       0.000e+00   0.000e+00  -110.171  -110.274    -0.103     (0)  
H(0)          3.673e-01
   H2              1.837e-01   1.874e-01    -0.736    -0.727     0.009     (0)  
O(0)          0.000e+00
   O2              0.000e+00   0.000e+00   -90.940   -90.931     0.009     (0)  
S(-2)         1.405e-09
   S5-2            1.342e-10   5.179e-11    -9.872   -10.286    -0.413     (0)  
   S4-2            7.829e-11   3.021e-11   -10.106   -10.520    -0.413     (0)  
   S6-2            6.945e-11   2.681e-11   -10.158   -10.572    -0.413     (0)  
   HS-             4.291e-12   3.308e-12   -11.367   -11.480    -0.113     (0)  
   S-2             6.292e-14   2.462e-14   -13.201   -13.609    -0.408     (0)  
   S3-2            2.759e-14   1.065e-14   -13.559   -13.973    -0.413     (0)  
   S2-2            1.566e-15   6.042e-16   -14.805   -15.219    -0.413     (0)  
   H2S             4.600e-16   4.694e-16   -15.337   -15.328     0.009     (0)  
   Fe(HS)2         2.664e-17   2.719e-17   -16.574   -16.566     0.009     (0)  
   Fe(HS)3-        1.243e-26   9.793e-27   -25.906   -26.009    -0.103     (0)  
S(6)          0.000e+00
   SO4-2           0.000e+00   0.000e+00   -43.613   -44.053    -0.440     (0)  
   FeSO4           0.000e+00   0.000e+00   -44.367   -44.358     0.009     (0)  
   HSO4-           0.000e+00   0.000e+00   -52.751   -52.856    -0.105     (0)  
   FeSO4+          0.000e+00   0.000e+00   -67.619   -67.721    -0.102     (0)  
   Fe(SO4)2-       0.000e+00   0.000e+00  -110.171  -110.274    -0.103     (0)  

------------------------------Saturation indices-------------------------------

  Phase               SI** log IAP   log K(298 K,   1 atm)

  Fe2(SO4)3      -190.92   -187.34    3.58  Fe2(SO4)3
  Fe3(OH)8          8.34     28.56   20.22  Fe3(OH)8
  Ferrihydrite     -0.12      4.77    4.89  Fe(OH)3
  FeS(ppt)          0.67     -3.25   -3.92  FeS
  Goethite          4.28      4.78    0.50  FeOOH
  Greigite        -19.37    -60.49  -41.13  Fe3S4
  Hematite         13.56      9.55   -4.01  Fe2O3
  Jarosite-H     -104.84   -116.94  -12.10  (H3O)Fe3(SO4)2(OH)6
  Lepidocrocite     3.40      4.78    1.37  FeOOH
  Mackinawite      -1.11     -3.25   -2.14  FeS
  Maghemite         3.17      9.55    6.39  Fe2O3
  Magnetite        24.84     28.58    3.74  Fe3O4
  Melanterite     -44.16    -46.63   -2.47  FeSO4:7H2O
  O2(g)           -87.97     -4.85   83.12  O2
  pe_fix           12.00     12.00    0.00  e-
  pH_fix          -10.79    -10.79    0.00  H+
  Pyrite           -9.46    -27.94  -18.48  FeS2
  Pyrrhotite        0.00     -3.25   -3.25  FeS
  Sulfur          -22.58    -24.69   -2.11  S

**For a gas, SI = log10(fugacity). Fugacity = pressure * phi / 1 atm.
  For ideal gases, phi = 1.

Reaction step 109.

Using solution 1.	PURE WATER
Using pure phase assemblage 1.	
Using reaction 1.	

Reaction 1.	

	  1.000e-02 moles of the following reaction have been added:

	                 Relative
	Reactant            moles

	Fe3S1                1.00000

	                 Relative
	Element             moles
	Fe                   3.00000
	S                    1.00000

-------------------------------Phase assemblage--------------------------------

                                                      Moles in assemblage
Phase               SI  log IAP  log K(T, P)   Initial       Final       Delta

Greigite        -19.45   -60.58    -41.13    0.000e+00           0   0.000e+00
Mackinawite      -1.11    -3.25     -2.14    0.000e+00           0   0.000e+00
Pyrite           -9.55   -28.03    -18.48    0.000e+00           0   0.000e+00
Pyrrhotite        0.00    -3.25     -3.25    9.111e-02   1.011e-01   1.000e-02

-----------------------------Solution composition------------------------------

	Elements           Molality       Moles

	Fe                2.037e-01   2.022e-01
	S                 1.321e-09   1.311e-09

----------------------------Description of solution----------------------------

                                       pH  =  10.791      Charge balance
                                       pe  = -12.026      Adjusted to redox equilibrium
                        Activity of water  =   0.993
                 Ionic strength (mol/kgw)  =   9.852e-02
                       Mass of water (kg)  =   9.927e-01
                 Total alkalinity (eq/kg)  =   4.074e-01
                         Temperature (°C)  =  25.00
                  Electrical balance (eq)  =  -1.123e-11
 Percent error, 100*(Cat-|An|)/(Cat+|An|)  =  -0.00
                               Iterations  =   6
                                  Total H  = 1.110129e+02
                                  Total O  = 5.550622e+01

----------------------------Distribution of species----------------------------

                                               Log       Log       Log    mole V
   Species          Molality    Activity  Molality  Activity     Gamma    cm³/mol

   OH-             8.081e-04   6.164e-04    -3.093    -3.210    -0.118     (0)  
   H+              1.960e-11   1.619e-11   -10.708   -10.791    -0.083      0.00
   H2O             5.551e+01   9.931e-01     1.744    -0.003     0.000     18.07
Fe(2)         2.037e-01
   Fe(OH)3-        9.010e-02   7.065e-02    -1.045    -1.151    -0.106     (0)  
   FeOH+           7.570e-02   5.935e-02    -1.121    -1.227    -0.106     (0)  
   Fe(OH)2         3.030e-02   3.099e-02    -1.519    -1.509     0.010     (0)  
   Fe+2            7.607e-03   3.059e-03    -2.119    -2.514    -0.396     (0)  
   Fe(HS)2         2.408e-17   2.464e-17   -16.618   -16.608     0.010     (0)  
   Fe(HS)3-        1.031e-26   8.064e-27   -25.987   -26.093    -0.107     (0)  
   FeSO4           0.000e+00   0.000e+00   -44.555   -44.545     0.010     (0)  
Fe(3)         1.210e-06
   Fe(OH)4-        1.208e-06   9.537e-07    -5.918    -6.021    -0.103     (0)  
   Fe(OH)3         1.520e-09   1.554e-09    -8.818    -8.808     0.010     (0)  
   Fe(OH)2+        2.733e-12   2.156e-12   -11.563   -11.666    -0.103     (0)  
   FeOH+2          2.808e-19   1.061e-19   -18.552   -18.974    -0.423     (0)  
   Fe+3            1.498e-27   2.680e-28   -26.825   -27.572    -0.747     (0)  
   Fe2(OH)2+4      1.549e-35   3.033e-37   -34.810   -36.518    -1.708     (0)  
   Fe3(OH)4+5      0.000e+00   0.000e+00   -43.195   -45.864    -2.669     (0)  
   FeSO4+          0.000e+00   0.000e+00   -67.827   -67.933    -0.106     (0)  
   Fe(SO4)2-       0.000e+00   0.000e+00  -110.607  -110.713    -0.107     (0)  
H(0)          4.079e-01
   H2              2.039e-01   2.086e-01    -0.690    -0.681     0.010     (0)  
O(0)          0.000e+00
   O2              0.000e+00   0.000e+00   -91.035   -91.025     0.010     (0)  
S(-2)         1.321e-09
   S5-2            1.262e-10   4.719e-11    -9.899   -10.326    -0.427     (0)  
   S4-2            7.361e-11   2.753e-11   -10.133   -10.560    -0.427     (0)  
   S6-2            6.530e-11   2.443e-11   -10.185   -10.612    -0.427     (0)  
   HS-             3.941e-12   3.006e-12   -11.404   -11.522    -0.118     (0)  
   S-2             5.934e-14   2.243e-14   -13.227   -13.649    -0.423     (0)  
   S3-2            2.594e-14   9.702e-15   -13.586   -14.013    -0.427     (0)  
   S2-2            1.472e-15   5.506e-16   -14.832   -15.259    -0.427     (0)  
   H2S             4.159e-16   4.254e-16   -15.381   -15.371     0.010     (0)  
   Fe(HS)2         2.408e-17   2.464e-17   -16.618   -16.608     0.010     (0)  
   Fe(HS)3-        1.031e-26   8.064e-27   -25.987   -26.093    -0.107     (0)  
S(6)          0.000e+00
   SO4-2           0.000e+00   0.000e+00   -43.823   -44.281    -0.457     (0)  
   FeSO4           0.000e+00   0.000e+00   -44.555   -44.545     0.010     (0)  
   HSO4-           0.000e+00   0.000e+00   -52.975   -53.085    -0.109     (0)  
   FeSO4+          0.000e+00   0.000e+00   -67.827   -67.933    -0.106     (0)  
   Fe(SO4)2-       0.000e+00   0.000e+00  -110.607  -110.713    -0.107     (0)  

------------------------------Saturation indices-------------------------------

  Phase               SI** log IAP   log K(298 K,   1 atm)

  Fe2(SO4)3      -191.57   -187.99    3.58  Fe2(SO4)3
  Fe3(OH)8          8.42     28.64   20.22  Fe3(OH)8
  Ferrihydrite     -0.10      4.79    4.89  Fe(OH)3
  FeS(ppt)          0.67     -3.25   -3.92  FeS
  Goethite          4.29      4.79    0.50  FeOOH
  Greigite        -19.45    -60.58  -41.13  Fe3S4
  Hematite         13.60      9.59   -4.01  Fe2O3
  Jarosite-H     -105.24   -117.34  -12.10  (H3O)Fe3(SO4)2(OH)6
  Lepidocrocite     3.42      4.79    1.37  FeOOH
  Mackinawite      -1.11     -3.25   -2.14  FeS
  Maghemite         3.21      9.59    6.39  Fe2O3
  Magnetite        24.92     28.66    3.74  Fe3O4
  Melanterite     -44.35    -46.82   -2.47  FeSO4:7H2O
  O2(g)           -88.06     -4.94   83.12  O2
  pe_fix           12.03     12.03    0.00  e-
  pH_fix          -10.79    -10.79    0.00  H+
  Pyrite           -9.55    -28.03  -18.48  FeS2
  Pyrrhotite        0.00     -3.25   -3.25  FeS
  Sulfur          -22.67    -24.78   -2.11  S

**For a gas, SI = log10(fugacity). Fugacity = pressure * phi / 1 atm.
  For ideal gases, phi = 1.

Reaction step 110.

Using solution 1.	PURE WATER
Using pure phase assemblage 1.	
Using reaction 1.	

Reaction 1.	

	  1.000e-02 moles of the following reaction have been added:

	                 Relative
	Reactant            moles

	Fe3S1                1.00000

	                 Relative
	Element             moles
	Fe                   3.00000
	S                    1.00000

-------------------------------Phase assemblage--------------------------------

                                                      Moles in assemblage
Phase               SI  log IAP  log K(T, P)   Initial       Final       Delta

Greigite        -19.54   -60.66    -41.13    0.000e+00           0   0.000e+00
Mackinawite      -1.11    -3.25     -2.14    0.000e+00           0   0.000e+00
Pyrite           -9.63   -28.11    -18.48    0.000e+00           0   0.000e+00
Pyrrhotite        0.00    -3.25     -3.25    1.011e-01   1.111e-01   1.000e-02

-----------------------------Solution composition------------------------------

	Elements           Molality       Moles

	Fe                2.240e-01   2.222e-01
	S                 1.249e-09   1.239e-09

----------------------------Description of solution----------------------------

                                       pH  =  10.792      Charge balance
                                       pe  = -12.048      Adjusted to redox equilibrium
                        Activity of water  =   0.992
                 Ionic strength (mol/kgw)  =   1.087e-01
                       Mass of water (kg)  =   9.920e-01
                 Total alkalinity (eq/kg)  =   4.480e-01
                         Temperature (°C)  =  25.00
                  Electrical balance (eq)  =  -1.097e-11
 Percent error, 100*(Cat-|An|)/(Cat+|An|)  =  -0.00
                               Iterations  =   5
                                  Total H  = 1.110129e+02
                                  Total O  = 5.550622e+01

----------------------------Distribution of species----------------------------

                                               Log       Log       Log    mole V
   Species          Molality    Activity  Molality  Activity     Gamma    cm³/mol

   OH-             8.177e-04   6.175e-04    -3.087    -3.209    -0.122     (0)  
   H+              1.964e-11   1.614e-11   -10.707   -10.792    -0.085      0.00
   H2O             5.551e+01   9.924e-01     1.744    -0.003     0.000     18.07
Fe(2)         2.240e-01
   Fe(OH)3-        9.935e-02   7.728e-02    -1.003    -1.112    -0.109     (0)  
   FeOH+           8.315e-02   6.468e-02    -1.080    -1.189    -0.109     (0)  
   Fe(OH)2         3.300e-02   3.384e-02    -1.481    -1.471     0.011     (0)  
   Fe+2            8.508e-03   3.328e-03    -2.070    -2.478    -0.408     (0)  
   Fe(HS)2         2.198e-17   2.253e-17   -16.658   -16.647     0.011     (0)  
   Fe(HS)3-        8.709e-27   6.763e-27   -26.060   -26.170    -0.110     (0)  
   FeSO4           0.000e+00   0.000e+00   -44.726   -44.715     0.011     (0)  
Fe(3)         1.269e-06
   Fe(OH)4-        1.268e-06   9.930e-07    -5.897    -6.003    -0.106     (0)  
   Fe(OH)3         1.576e-09   1.616e-09    -8.803    -8.792     0.011     (0)  
   Fe(OH)2+        2.856e-12   2.237e-12   -11.544   -11.650    -0.106     (0)  
   FeOH+2          3.001e-19   1.099e-19   -18.523   -18.959    -0.436     (0)  
   Fe+3            1.617e-27   2.769e-28   -26.791   -27.558    -0.766     (0)  
   Fe2(OH)2+4      1.859e-35   3.251e-37   -34.731   -36.488    -1.757     (0)  
   Fe3(OH)4+5      0.000e+00   0.000e+00   -43.073   -45.818    -2.746     (0)  
   FeSO4+          0.000e+00   0.000e+00   -68.016   -68.125    -0.109     (0)  
   Fe(SO4)2-       0.000e+00   0.000e+00  -111.003  -111.113    -0.110     (0)  
H(0)          4.485e-01
   H2              2.243e-01   2.299e-01    -0.649    -0.638     0.011     (0)  
O(0)          0.000e+00
   O2              0.000e+00   0.000e+00   -91.121   -91.110     0.011     (0)  
S(-2)         1.249e-09
   S5-2            1.193e-10   4.338e-11    -9.923   -10.363    -0.439     (0)  
   S4-2            6.960e-11   2.531e-11   -10.157   -10.597    -0.439     (0)  
   S6-2            6.174e-11   2.245e-11   -10.209   -10.649    -0.439     (0)  
   HS-             3.650e-12   2.756e-12   -11.438   -11.560    -0.122     (0)  
   S-2             5.631e-14   2.062e-14   -13.249   -13.686    -0.436     (0)  
   S3-2            2.452e-14   8.919e-15   -13.610   -14.050    -0.439     (0)  
   S2-2            1.392e-15   5.062e-16   -14.856   -15.296    -0.439     (0)  
   H2S             3.795e-16   3.891e-16   -15.421   -15.410     0.011     (0)  
   Fe(HS)2         2.198e-17   2.253e-17   -16.658   -16.647     0.011     (0)  
   Fe(HS)3-        8.709e-27   6.763e-27   -26.060   -26.170    -0.110     (0)  
S(6)          0.000e+00
   SO4-2           0.000e+00   0.000e+00   -44.014   -44.487    -0.474     (0)  
   FeSO4           0.000e+00   0.000e+00   -44.726   -44.715     0.011     (0)  
   HSO4-           0.000e+00   0.000e+00   -53.179   -53.292    -0.113     (0)  
   FeSO4+          0.000e+00   0.000e+00   -68.016   -68.125    -0.109     (0)  
   Fe(SO4)2-       0.000e+00   0.000e+00  -111.003  -111.113    -0.110     (0)  

------------------------------Saturation indices-------------------------------

  Phase               SI** log IAP   log K(298 K,   1 atm)

  Fe2(SO4)3      -192.16   -188.58    3.58  Fe2(SO4)3
  Fe3(OH)8          8.49     28.72   20.22  Fe3(OH)8
  Ferrihydrite     -0.08      4.81    4.89  Fe(OH)3
  FeS(ppt)          0.67     -3.25   -3.92  FeS
  Goethite          4.31      4.81    0.50  FeOOH
  Greigite        -19.54    -60.66  -41.13  Fe3S4
  Hematite         13.63      9.63   -4.01  Fe2O3
  Jarosite-H     -105.61   -117.71  -12.10  (H3O)Fe3(SO4)2(OH)6
  Lepidocrocite     3.44      4.81    1.37  FeOOH
  Mackinawite      -1.11     -3.25   -2.14  FeS
  Maghemite         3.24      9.63    6.39  Fe2O3
  Magnetite        24.99     28.73    3.74  Fe3O4
  Melanterite     -44.52    -46.99   -2.47  FeSO4:7H2O
  O2(g)           -88.15     -5.03   83.12  O2
  pe_fix           12.05     12.05    0.00  e-
  pH_fix          -10.79    -10.79    0.00  H+
  Pyrite           -9.63    -28.11  -18.48  FeS2
  Pyrrhotite        0.00     -3.25   -3.25  FeS
  Sulfur          -22.75    -24.86   -2.11  S

**For a gas, SI = log10(fugacity). Fugacity = pressure * phi / 1 atm.
  For ideal gases, phi = 1.

------------------
End of simulation.
------------------

------------------------------------
Reading input data for simulation 5.
------------------------------------

-------------------------------
End of Run after 1.438 Seconds.
-------------------------------

