   Input file: C:\Users\jt2020\OneDrive - Imperial College London\Data\Thermodynamics\Thermodynamics\Phreeq\Reaction Progress\All models with pyrrhotite\Nitrate\Standard models\Nitrate Reaction progress  unbuffered High N.pqi
  Output file: C:\Users\jt2020\OneDrive - Imperial College London\Data\Thermodynamics\Thermodynamics\Phreeq\Reaction Progress\All models with pyrrhotite\Nitrate\Standard models\Nitrate Reaction progress  unbuffered High N.pqo
Database file: C:\Users\jt2020\OneDrive - Imperial College London\Data\Thermodynamics\Thermodynamics\Phreeq\Reaction Progress\All models with pyrrhotite\Database\llnlpyrrminteqNO2.dat

------------------
Reading data base.
------------------

	SOLUTION_MASTER_SPECIES
	SOLUTION_SPECIES
	SOLUTION_SPECIES
	PHASES
	SURFACE_MASTER_SPECIES
	SURFACE_SPECIES
	END
------------------------------------
Reading input data for simulation 1.
------------------------------------

	DATABASE C:\Users\jt2020\OneDrive - Imperial College London\Data\Thermodynamics\Thermodynamics\Phreeq\Reaction Progress\All models with pyrrhotite\Database\llnlpyrrminteqNO2.dat
	TITLE Fe dom acidic
	SOLUTION 1  PURE WATER
	            pH    6 charge
	          temp   25.0
	           pe     3
	           N     0.01
	PHASES
	       pH_fix
	                H + = H +
	                log_k = 0.0
	       pe_fix
	                e- = e-
	                log_k 0.0
	       N2(g)
	             N2 = N2
	             log_k       -3.1864
	       NO2(g)
	                NO2 = 0.5N2 + O2
	                log_k   8.9857
	                delta_h -7.91421  kcal
	        Mackinawite
	                FeS + 2H+ = Fe+2 + H2S
	                log_k     4.850
	                delta_h        -8.901 kcal
	        Pyrrhotite
	                FeS + 2H+ = Fe+2 + H2S
	                log_k     3.74177
	                delta_h        -7.977 kcal
	        Greigite
	                Fe3S4 + 2NO2(g) + Fe+2 + 2H2O = 4Mackinawite(s) + 2NO3- + 4H+
	                log_k   -32.773
	                delta_h  59.257    kcal
	        Pyrite
	                FeS2 + 0.5Fe+2 + NO2(g) + H2O = 0.5Greigite(s) + NO3- + 2H+
	                log_k          -22.44229642
	                delta_h        11.59814325    kcal
	        NaNO3
	                NaNO3 = Na+ + NO3-
	                log_K -20
	        NaCl
	                NaCl = Cl- + Na+
	                log_k     -20
	END
-----
TITLE
-----

 Fe dom acidic

-------------------------------------------
Beginning of initial solution calculations.
-------------------------------------------

Initial solution 1.	PURE WATER

-----------------------------Solution composition------------------------------

	Elements           Molality       Moles

	N                 1.000e-05   1.000e-05

----------------------------Description of solution----------------------------

                                       pH  =   6.999      Charge balance
                                       pe  =   3.000    
                        Activity of water  =   1.000
                 Ionic strength (mol/kgw)  =   1.003e-07
                       Mass of water (kg)  =   1.000e+00
                 Total alkalinity (eq/kg)  =   2.655e-17
                         Temperature (°C)  =  25.00
                  Electrical balance (eq)  =  -2.655e-17
 Percent error, 100*(Cat-|An|)/(Cat+|An|)  =  -0.00
                               Iterations  =   6
                                  Total H  = 1.110124e+02
                                  Total O  = 5.550622e+01

----------------------------Distribution of species----------------------------

                                               Log       Log       Log    mole V
   Species          Molality    Activity  Molality  Activity     Gamma    cm³/mol

   OH-             1.003e-07   1.002e-07    -6.999    -6.999    -0.000     (0)  
   H+              1.003e-07   1.002e-07    -6.999    -6.999    -0.000      0.00
   H2O             5.551e+01   1.000e+00     1.744    -0.000     0.000     18.07
H(0)          1.422e-23
   H2              7.112e-24   7.112e-24   -23.148   -23.148     0.000     (0)  
N(-3)         7.818e-25
   NH4+            7.774e-25   7.771e-25   -24.109   -24.110    -0.000     (0)  
   NH3             4.418e-27   4.418e-27   -26.355   -26.355     0.000     (0)  
N(0)          1.000e-05
   N2              5.000e-06   5.000e-06    -5.301    -5.301     0.000     (0)  
N(3)          0.000e+00
   NO2-            0.000e+00   0.000e+00   -40.624   -40.625    -0.000     (0)  
N(5)          0.000e+00
   NO3-            0.000e+00   0.000e+00   -49.196   -49.197    -0.000     (0)  
O(0)          0.000e+00
   O2              0.000e+00   0.000e+00   -46.084   -46.084     0.000     (0)  

------------------------------Saturation indices-------------------------------

  Phase               SI** log IAP   log K(298 K,   1 atm)

  N2(g)            -2.11     -5.30   -3.19  N2
  NO2(g)          -57.72    -48.73    8.99  NO2
  O2(g)           -43.12     40.00   83.12  O2
  pe_fix           -3.00     -3.00    0.00  e-
  pH_fix           -7.00     -7.00    0.00  H+

**For a gas, SI = log10(fugacity). Fugacity = pressure * phi / 1 atm.
  For ideal gases, phi = 1.

------------------
End of simulation.
------------------

------------------------------------
Reading input data for simulation 2.
------------------------------------

	INCREMENTAL_REACTIONS
	REACTION
	Fe3S1 1
	10*1e-12 10*1e-11 10*1e-10 10*1e-9 10*1e-8 10*1e-7 10*1e-6 10*1e-5 10*1e-4  10*1e-3  10*1e-2 mol
	USE solution 1
	EQUILIBRIUM_PHASES 1
	        Mackinawite     0.0     0.0
	        Greigite        0.0     0.0
	        Pyrite          0.0     0.0
	        Pyrrhotite      0.0     0.0
	USER_GRAPH 1 Simulation 6
	    -headings               Pyrite Greigite Mackinawite
	    -axis_titles            "Fe and S added, Log moles" "Mineral, moles"
	    -chart_title            "Pyrite pathway in an iron dominant system with Nitrate"
	    -initial_solutions      false
	    -connect_simulations    false
	    -axis_scale y_axis      auto auto auto auto Log
	    -axis_scale sy_axis	    auto auto auto auto Log
	    -plot_concentration_vs  x
	  -start
	 5 PUT(GET(1) + RXN, 1)
	  20 PLOT_XY log10(GET(1)), EQUI("Pyrite") color = Green, line_w = 0,   	symbol = Plus, symbol_size = 5, y_axis = 2
	  30 PLOT_XY log10(GET(1)), EQUI("Greigite") color = Blue, line_w = 0,   	symbol = Plus, symbol_size = 5, y_axis = 2
	  40 PLOT_XY log10(GET(1)), EQUI("Mackinawite") color = Cyan, line_w = 0,   	symbol = Plus, symbol_size = 5, y_axis = 2
	  50 PLOT_XY log10(GET(1)), EQUI("Pyrrhotite") color = Red, line_w = 0,   	symbol = Plus, symbol_size = 5, y_axis = 2
	  -end
	    -active                 true
	SELECTED_OUTPUT
	    file                 Nitrate Fe dominated 180mV pH 6 unbuffered High N.csv
	    saturation_indices   Mackinawite  Greigite  Pyrite Pyrrhotite
	    reaction             
	    totals               Fe S
	    equilibrium_phases   Mackinawite  Greigite  Pyrite Pyrrhotite
	END
-----------------------------------------
Beginning of batch-reaction calculations.
-----------------------------------------

Reaction step 1.

Using solution 1.	PURE WATER
Using pure phase assemblage 1.	
Using reaction 1.	

Reaction 1.	

	  1.000e-12 moles of the following reaction have been added:

	                 Relative
	Reactant            moles

	Fe3S1                1.00000

	                 Relative
	Element             moles
	Fe                   3.00000
	S                    1.00000

-------------------------------Phase assemblage--------------------------------

                                                      Moles in assemblage
Phase               SI  log IAP  log K(T, P)   Initial       Final       Delta

Greigite         16.30   -16.47    -32.77    0.000e+00           0   0.000e+00
Mackinawite     -33.88   -29.03      4.85    0.000e+00           0   0.000e+00
Pyrite           28.20     5.76    -22.44    0.000e+00           0   0.000e+00
Pyrrhotite      -32.77   -29.03      3.74    0.000e+00           0   0.000e+00

-----------------------------Solution composition------------------------------

	Elements           Molality       Moles

	Fe                3.000e-12   3.000e-12
	N                 1.000e-05   1.000e-05
	S                 1.000e-12   1.000e-12

----------------------------Description of solution----------------------------

                                       pH  =   6.999      Charge balance
                                       pe  =  -1.236      Adjusted to redox equilibrium
                        Activity of water  =   1.000
                 Ionic strength (mol/kgw)  =   1.003e-07
                       Mass of water (kg)  =   1.000e+00
                 Total alkalinity (eq/kg)  =   7.994e-12
                         Temperature (°C)  =  25.00
                  Electrical balance (eq)  =  -2.655e-17
 Percent error, 100*(Cat-|An|)/(Cat+|An|)  =  -0.00
                               Iterations  =  15
                                  Total H  = 1.110124e+02
                                  Total O  = 5.550622e+01

----------------------------Distribution of species----------------------------

                                               Log       Log       Log    mole V
   Species          Molality    Activity  Molality  Activity     Gamma    cm³/mol

   OH-             1.003e-07   1.002e-07    -6.999    -6.999    -0.000     (0)  
   H+              1.003e-07   1.002e-07    -6.999    -6.999    -0.000      0.00
   H2O             5.551e+01   1.000e+00     1.744    -0.000     0.000     18.07
Fe(2)         3.000e-12
   Fe+2            2.991e-12   2.986e-12   -11.524   -11.525    -0.001     (0)  
   FeOH+           9.425e-15   9.422e-15   -14.026   -14.026    -0.000     (0)  
   Fe(OH)2         8.001e-19   8.001e-19   -18.097   -18.097     0.000     (0)  
   FeSO4           5.302e-22   5.302e-22   -21.276   -21.276     0.000     (0)  
   Fe(OH)3-        2.967e-22   2.966e-22   -21.528   -21.528    -0.000     (0)  
   Fe(HS)2         0.000e+00   0.000e+00   -65.461   -65.461     0.000     (0)  
   Fe(HS)3-        0.000e+00   0.000e+00   -94.866   -94.866    -0.000     (0)  
Fe(3)         3.872e-18
   Fe(OH)2+        3.429e-18   3.428e-18   -17.465   -17.465    -0.000     (0)  
   Fe(OH)3         4.018e-19   4.018e-19   -18.396   -18.396     0.000     (0)  
   Fe(OH)4-        4.011e-20   4.009e-20   -19.397   -19.397    -0.000     (0)  
   FeOH+2          1.039e-21   1.038e-21   -20.983   -20.984    -0.001     (0)  
   Fe+3            1.616e-26   1.611e-26   -25.792   -25.793    -0.001     (0)  
   FeSO4+          1.338e-34   1.338e-34   -33.873   -33.874    -0.000     (0)  
   Fe2(OH)2+4      0.000e+00   0.000e+00   -40.535   -40.538    -0.003     (0)  
   Fe(SO4)2-       0.000e+00   0.000e+00   -44.374   -44.374    -0.000     (0)  
   Fe3(OH)4+5      0.000e+00   0.000e+00   -55.679   -55.683    -0.004     (0)  
H(0)          4.219e-15
   H2              2.110e-15   2.110e-15   -14.676   -14.676     0.000     (0)  
N(-3)         3.994e-12
   NH4+            3.971e-12   3.970e-12   -11.401   -11.401    -0.000     (0)  
   NH3             2.257e-14   2.257e-14   -13.646   -13.646     0.000     (0)  
   NH4SO4-         5.108e-23   5.106e-23   -22.292   -22.292    -0.000     (0)  
N(0)          1.000e-05
   N2              5.000e-06   5.000e-06    -5.301    -5.301     0.000     (0)  
N(3)          0.000e+00
   NO2-            0.000e+00   0.000e+00   -53.333   -53.333    -0.000     (0)  
N(5)          0.000e+00
   NO3-            0.000e+00   0.000e+00   -70.377   -70.377    -0.000     (0)  
O(0)          0.000e+00
   O2              0.000e+00   0.000e+00   -63.028   -63.028     0.000     (0)  
S(-2)         6.865e-32
   HS-             3.608e-32   3.607e-32   -31.443   -31.443    -0.000     (0)  
   H2S             3.161e-32   3.161e-32   -31.500   -31.500     0.000     (0)  
   S5-2            9.158e-35   9.144e-35   -34.038   -34.039    -0.001     (0)  
   S4-2            5.343e-35   5.335e-35   -34.272   -34.273    -0.001     (0)  
   S6-2            4.740e-35   4.733e-35   -34.324   -34.325    -0.001     (0)  
   S-2             4.353e-38   4.347e-38   -37.361   -37.362    -0.001     (0)  
   S3-2            1.883e-38   1.880e-38   -37.725   -37.726    -0.001     (0)  
   S2-2            1.069e-39   1.067e-39   -38.971   -38.972    -0.001     (0)  
   Fe(HS)2         0.000e+00   0.000e+00   -65.461   -65.461     0.000     (0)  
   Fe(HS)3-        0.000e+00   0.000e+00   -94.866   -94.866    -0.000     (0)  
S(6)          1.000e-12
   SO4-2           1.000e-12   9.985e-13   -12.000   -12.001    -0.001     (0)  
   HSO4-           9.715e-18   9.711e-18   -17.013   -17.013    -0.000     (0)  
   FeSO4           5.302e-22   5.302e-22   -21.276   -21.276     0.000     (0)  
   NH4SO4-         5.108e-23   5.106e-23   -22.292   -22.292    -0.000     (0)  
   FeSO4+          1.338e-34   1.338e-34   -33.873   -33.874    -0.000     (0)  
   Fe(SO4)2-       0.000e+00   0.000e+00   -44.374   -44.374    -0.000     (0)  

------------------------------Saturation indices-------------------------------

  Phase               SI** log IAP   log K(298 K,   1 atm)

  Fe2(SO4)3       -91.17    -87.59    3.58  Fe2(SO4)3
  Fe3(OH)8        -27.34     -7.12   20.22  Fe3(OH)8
  Ferrihydrite     -9.69     -4.80    4.89  Fe(OH)3
  FeS(ppt)        -32.05    -35.97   -3.92  FeS
  Goethite         -5.30     -4.80    0.50  FeOOH
  Greigite       -110.63   -169.74  -59.11  Fe3S4
  Hematite         -5.58     -9.59   -4.01  Fe2O3
  Jarosite-H      -54.29    -66.39  -12.10  (H3O)Fe3(SO4)2(OH)6
  Lepidocrocite    -6.17     -4.80    1.37  FeOOH
  Mackinawite     -33.88    -29.03    4.85  FeS
  Maghemite       -15.98     -9.59    6.39  Fe2O3
  Magnetite       -10.86     -7.12    3.74  Fe3O4
  Melanterite     -21.06    -23.53   -2.47  FeSO4:7H2O
  N2(g)            -2.11     -5.30   -3.19  N2
  NO2(g)          -74.66    -65.68    8.99  NO2
  O2(g)           -60.07     23.05   83.12  O2
  pe_fix            1.24      1.24    0.00  e-
  pH_fix           -7.00     -7.00    0.00  H+
  Pyrite          -36.82    -97.80  -60.98  FeS2
  Pyrrhotite      -32.77    -29.03    3.74  FeS
  Sulfur          -24.81    -26.92   -2.11  S

**For a gas, SI = log10(fugacity). Fugacity = pressure * phi / 1 atm.
  For ideal gases, phi = 1.

Reaction step 2.

Using solution 1.	PURE WATER
Using pure phase assemblage 1.	
Using reaction 1.	

Reaction 1.	

	  1.000e-12 moles of the following reaction have been added:

	                 Relative
	Reactant            moles

	Fe3S1                1.00000

	                 Relative
	Element             moles
	Fe                   3.00000
	S                    1.00000

-------------------------------Phase assemblage--------------------------------

                                                      Moles in assemblage
Phase               SI  log IAP  log K(T, P)   Initial       Final       Delta

Greigite         16.00   -16.77    -32.77    0.000e+00           0   0.000e+00
Mackinawite     -32.47   -27.62      4.85    0.000e+00           0   0.000e+00
Pyrite           28.05     5.61    -22.44    0.000e+00           0   0.000e+00
Pyrrhotite      -31.36   -27.62      3.74    0.000e+00           0   0.000e+00

-----------------------------Solution composition------------------------------

	Elements           Molality       Moles

	Fe                6.000e-12   6.000e-12
	N                 1.000e-05   1.000e-05
	S                 2.000e-12   2.000e-12

----------------------------Description of solution----------------------------

                                       pH  =   6.999      Charge balance
                                       pe  =  -1.337      Adjusted to redox equilibrium
                        Activity of water  =   1.000
                 Ionic strength (mol/kgw)  =   1.003e-07
                       Mass of water (kg)  =   1.000e+00
                 Total alkalinity (eq/kg)  =   1.600e-11
                         Temperature (°C)  =  25.00
                  Electrical balance (eq)  =  -2.655e-17
 Percent error, 100*(Cat-|An|)/(Cat+|An|)  =  -0.00
                               Iterations  =   5
                                  Total H  = 1.110124e+02
                                  Total O  = 5.550622e+01

----------------------------Distribution of species----------------------------

                                               Log       Log       Log    mole V
   Species          Molality    Activity  Molality  Activity     Gamma    cm³/mol

   OH-             1.003e-07   1.002e-07    -6.999    -6.999    -0.000     (0)  
   H+              1.003e-07   1.002e-07    -6.999    -6.999    -0.000      0.00
   H2O             5.551e+01   1.000e+00     1.744    -0.000     0.000     18.07
Fe(2)         6.000e-12
   Fe+2            5.981e-12   5.972e-12   -11.223   -11.224    -0.001     (0)  
   FeOH+           1.885e-14   1.884e-14   -13.725   -13.725    -0.000     (0)  
   Fe(OH)2         1.600e-18   1.600e-18   -17.796   -17.796     0.000     (0)  
   FeSO4           2.121e-21   2.121e-21   -20.673   -20.673     0.000     (0)  
   Fe(OH)3-        5.935e-22   5.933e-22   -21.227   -21.227    -0.000     (0)  
   Fe(HS)2         0.000e+00   0.000e+00   -62.949   -62.949     0.000     (0)  
   Fe(HS)3-        0.000e+00   0.000e+00   -91.249   -91.250    -0.000     (0)  
Fe(3)         6.144e-18
   Fe(OH)2+        5.441e-18   5.439e-18   -17.264   -17.264    -0.000     (0)  
   Fe(OH)3         6.376e-19   6.376e-19   -18.195   -18.195     0.000     (0)  
   Fe(OH)4-        6.365e-20   6.362e-20   -19.196   -19.196    -0.000     (0)  
   FeOH+2          1.649e-21   1.646e-21   -20.783   -20.783    -0.001     (0)  
   Fe+3            2.564e-26   2.555e-26   -25.591   -25.593    -0.001     (0)  
   FeSO4+          4.246e-34   4.245e-34   -33.372   -33.372    -0.000     (0)  
   Fe2(OH)2+4      0.000e+00   0.000e+00   -40.134   -40.137    -0.003     (0)  
   Fe(SO4)2-       0.000e+00   0.000e+00   -43.572   -43.572    -0.000     (0)  
   Fe3(OH)4+5      0.000e+00   0.000e+00   -55.077   -55.081    -0.004     (0)  
H(0)          6.703e-15
   H2              3.352e-15   3.352e-15   -14.475   -14.475     0.000     (0)  
N(-3)         7.998e-12
   NH4+            7.953e-12   7.950e-12   -11.099   -11.100    -0.000     (0)  
   NH3             4.520e-14   4.520e-14   -13.345   -13.345     0.000     (0)  
   NH4SO4-         2.046e-22   2.045e-22   -21.689   -21.689    -0.000     (0)  
N(0)          1.000e-05
   N2              5.000e-06   5.000e-06    -5.301    -5.301     0.000     (0)  
N(3)          0.000e+00
   NO2-            0.000e+00   0.000e+00   -53.634   -53.634    -0.000     (0)  
N(5)          0.000e+00
   NO3-            0.000e+00   0.000e+00   -70.879   -70.880    -0.000     (0)  
O(0)          0.000e+00
   O2              0.000e+00   0.000e+00   -63.431   -63.431     0.000     (0)  
S(-2)         8.747e-31
   HS-             4.598e-31   4.596e-31   -30.337   -30.338    -0.000     (0)  
   H2S             4.028e-31   4.028e-31   -30.395   -30.395     0.000     (0)  
   S5-2            1.167e-33   1.165e-33   -32.933   -32.934    -0.001     (0)  
   S4-2            6.809e-34   6.799e-34   -33.167   -33.168    -0.001     (0)  
   S6-2            6.041e-34   6.032e-34   -33.219   -33.220    -0.001     (0)  
   S-2             5.547e-37   5.539e-37   -36.256   -36.257    -0.001     (0)  
   S3-2            2.399e-37   2.396e-37   -36.620   -36.621    -0.001     (0)  
   S2-2            1.362e-38   1.360e-38   -37.866   -37.867    -0.001     (0)  
   Fe(HS)2         0.000e+00   0.000e+00   -62.949   -62.949     0.000     (0)  
   Fe(HS)3-        0.000e+00   0.000e+00   -91.249   -91.250    -0.000     (0)  
S(6)          2.000e-12
   SO4-2           2.000e-12   1.997e-12   -11.699   -11.700    -0.001     (0)  
   HSO4-           1.943e-17   1.942e-17   -16.712   -16.712    -0.000     (0)  
   FeSO4           2.121e-21   2.121e-21   -20.673   -20.673     0.000     (0)  
   NH4SO4-         2.046e-22   2.045e-22   -21.689   -21.689    -0.000     (0)  
   FeSO4+          4.246e-34   4.245e-34   -33.372   -33.372    -0.000     (0)  
   Fe(SO4)2-       0.000e+00   0.000e+00   -43.572   -43.572    -0.000     (0)  

------------------------------Saturation indices-------------------------------

  Phase               SI** log IAP   log K(298 K,   1 atm)

  Fe2(SO4)3       -89.86    -86.28    3.58  Fe2(SO4)3
  Fe3(OH)8        -26.64     -6.42   20.22  Fe3(OH)8
  Ferrihydrite     -9.49     -4.60    4.89  Fe(OH)3
  FeS(ppt)        -30.65    -34.56   -3.92  FeS
  Goethite         -5.10     -4.60    0.50  FeOOH
  Greigite       -105.51   -164.62  -59.11  Fe3S4
  Hematite         -5.18     -9.19   -4.01  Fe2O3
  Jarosite-H      -53.08    -65.18  -12.10  (H3O)Fe3(SO4)2(OH)6
  Lepidocrocite    -5.97     -4.60    1.37  FeOOH
  Mackinawite     -32.47    -27.62    4.85  FeS
  Maghemite       -15.58     -9.19    6.39  Fe2O3
  Magnetite       -10.15     -6.42    3.74  Fe3O4
  Melanterite     -20.45    -22.92   -2.47  FeSO4:7H2O
  N2(g)            -2.11     -5.30   -3.19  N2
  NO2(g)          -75.07    -66.08    8.99  NO2
  O2(g)           -60.47     22.65   83.12  O2
  pe_fix            1.34      1.34    0.00  e-
  pH_fix           -7.00     -7.00    0.00  H+
  Pyrite          -34.51    -95.49  -60.98  FeS2
  Pyrrhotite      -31.36    -27.62    3.74  FeS
  Sulfur          -23.90    -26.01   -2.11  S

**For a gas, SI = log10(fugacity). Fugacity = pressure * phi / 1 atm.
  For ideal gases, phi = 1.

Reaction step 3.

Using solution 1.	PURE WATER
Using pure phase assemblage 1.	
Using reaction 1.	

Reaction 1.	

	  1.000e-12 moles of the following reaction have been added:

	                 Relative
	Reactant            moles

	Fe3S1                1.00000

	                 Relative
	Element             moles
	Fe                   3.00000
	S                    1.00000

-------------------------------Phase assemblage--------------------------------

                                                      Moles in assemblage
Phase               SI  log IAP  log K(T, P)   Initial       Final       Delta

Greigite         15.82   -16.95    -32.77    0.000e+00           0   0.000e+00
Mackinawite     -31.65   -26.80      4.85    0.000e+00           0   0.000e+00
Pyrite           27.97     5.52    -22.44    0.000e+00           0   0.000e+00
Pyrrhotite      -30.54   -26.80      3.74    0.000e+00           0   0.000e+00

-----------------------------Solution composition------------------------------

	Elements           Molality       Moles

	Fe                9.000e-12   9.000e-12
	N                 1.000e-05   1.000e-05
	S                 3.000e-12   3.000e-12

----------------------------Description of solution----------------------------

                                       pH  =   6.999      Charge balance
                                       pe  =  -1.395      Adjusted to redox equilibrium
                        Activity of water  =   1.000
                 Ionic strength (mol/kgw)  =   1.003e-07
                       Mass of water (kg)  =   1.000e+00
                 Total alkalinity (eq/kg)  =   2.399e-11
                         Temperature (°C)  =  25.00
                  Electrical balance (eq)  =  -2.655e-17
 Percent error, 100*(Cat-|An|)/(Cat+|An|)  =  -0.00
                               Iterations  =   4
                                  Total H  = 1.110124e+02
                                  Total O  = 5.550622e+01

----------------------------Distribution of species----------------------------

                                               Log       Log       Log    mole V
   Species          Molality    Activity  Molality  Activity     Gamma    cm³/mol

   OH-             1.003e-07   1.002e-07    -6.999    -6.999    -0.000     (0)  
   H+              1.003e-07   1.002e-07    -6.999    -6.999    -0.000      0.00
   H2O             5.551e+01   1.000e+00     1.744    -0.000     0.000     18.07
Fe(2)         9.000e-12
   Fe+2            8.972e-12   8.958e-12   -11.047   -11.048    -0.001     (0)  
   FeOH+           2.828e-14   2.827e-14   -13.549   -13.549    -0.000     (0)  
   Fe(OH)2         2.401e-18   2.401e-18   -17.620   -17.620     0.000     (0)  
   FeSO4           4.772e-21   4.772e-21   -20.321   -20.321     0.000     (0)  
   Fe(OH)3-        8.903e-22   8.900e-22   -21.050   -21.051    -0.000     (0)  
   Fe(HS)2         0.000e+00   0.000e+00   -61.482   -61.482     0.000     (0)  
   Fe(HS)3-        0.000e+00   0.000e+00   -89.138   -89.138    -0.000     (0)  
Fe(3)         8.052e-18
   Fe(OH)2+        7.131e-18   7.129e-18   -17.147   -17.147    -0.000     (0)  
   Fe(OH)3         8.357e-19   8.357e-19   -18.078   -18.078     0.000     (0)  
   Fe(OH)4-        8.342e-20   8.339e-20   -19.079   -19.079    -0.000     (0)  
   FeOH+2          2.161e-21   2.157e-21   -20.665   -20.666    -0.001     (0)  
   Fe+3            3.360e-26   3.349e-26   -25.474   -25.475    -0.001     (0)  
   FeSO4+          8.347e-34   8.344e-34   -33.078   -33.079    -0.000     (0)  
   Fe2(OH)2+4      1.260e-40   1.253e-40   -39.900   -39.902    -0.003     (0)  
   Fe(SO4)2-       0.000e+00   0.000e+00   -43.102   -43.102    -0.000     (0)  
   Fe3(OH)4+5      0.000e+00   0.000e+00   -54.725   -54.729    -0.004     (0)  
H(0)          8.782e-15
   H2              4.391e-15   4.391e-15   -14.357   -14.357     0.000     (0)  
N(-3)         1.199e-11
   NH4+            1.192e-11   1.192e-11   -10.924   -10.924    -0.000     (0)  
   NH3             6.778e-14   6.778e-14   -13.169   -13.169     0.000     (0)  
   NH4SO4-         4.602e-22   4.600e-22   -21.337   -21.337    -0.000     (0)  
N(0)          1.000e-05
   N2              5.000e-06   5.000e-06    -5.301    -5.301     0.000     (0)  
N(3)          0.000e+00
   NO2-            0.000e+00   0.000e+00   -53.810   -53.810    -0.000     (0)  
N(5)          0.000e+00
   NO3-            0.000e+00   0.000e+00   -71.173   -71.173    -0.000     (0)  
O(0)          0.000e+00
   O2              0.000e+00   0.000e+00   -63.665   -63.665     0.000     (0)  
S(-2)         3.865e-30
   HS-             2.032e-30   2.031e-30   -29.692   -29.692    -0.000     (0)  
   H2S             1.780e-30   1.780e-30   -29.750   -29.750     0.000     (0)  
   S5-2            5.157e-33   5.149e-33   -32.288   -32.288    -0.001     (0)  
   S4-2            3.009e-33   3.004e-33   -32.522   -32.522    -0.001     (0)  
   S6-2            2.669e-33   2.665e-33   -32.574   -32.574    -0.001     (0)  
   S-2             2.451e-36   2.448e-36   -35.611   -35.611    -0.001     (0)  
   S3-2            1.060e-36   1.059e-36   -35.975   -35.975    -0.001     (0)  
   S2-2            6.017e-38   6.008e-38   -37.221   -37.221    -0.001     (0)  
   Fe(HS)2         0.000e+00   0.000e+00   -61.482   -61.482     0.000     (0)  
   Fe(HS)3-        0.000e+00   0.000e+00   -89.138   -89.138    -0.000     (0)  
S(6)          3.000e-12
   SO4-2           3.000e-12   2.996e-12   -11.523   -11.524    -0.001     (0)  
   HSO4-           2.914e-17   2.913e-17   -16.535   -16.536    -0.000     (0)  
   FeSO4           4.772e-21   4.772e-21   -20.321   -20.321     0.000     (0)  
   NH4SO4-         4.602e-22   4.600e-22   -21.337   -21.337    -0.000     (0)  
   FeSO4+          8.347e-34   8.344e-34   -33.078   -33.079    -0.000     (0)  
   Fe(SO4)2-       0.000e+00   0.000e+00   -43.102   -43.102    -0.000     (0)  

------------------------------Saturation indices-------------------------------

  Phase               SI** log IAP   log K(298 K,   1 atm)

  Fe2(SO4)3       -89.10    -85.52    3.58  Fe2(SO4)3
  Fe3(OH)8        -26.23     -6.01   20.22  Fe3(OH)8
  Ferrihydrite     -9.37     -4.48    4.89  Fe(OH)3
  FeS(ppt)        -29.83    -33.74   -3.92  FeS
  Goethite         -4.98     -4.48    0.50  FeOOH
  Greigite       -102.52   -161.63  -59.11  Fe3S4
  Hematite         -4.95     -8.96   -4.01  Fe2O3
  Jarosite-H      -52.38    -64.48  -12.10  (H3O)Fe3(SO4)2(OH)6
  Lepidocrocite    -5.85     -4.48    1.37  FeOOH
  Mackinawite     -31.65    -26.80    4.85  FeS
  Maghemite       -15.34     -8.96    6.39  Fe2O3
  Magnetite        -9.74     -6.01    3.74  Fe3O4
  Melanterite     -20.10    -22.57   -2.47  FeSO4:7H2O
  N2(g)            -2.11     -5.30   -3.19  N2
  NO2(g)          -75.30    -66.32    8.99  NO2
  O2(g)           -60.71     22.41   83.12  O2
  pe_fix            1.40      1.40    0.00  e-
  pH_fix           -7.00     -7.00    0.00  H+
  Pyrite          -33.16    -94.14  -60.98  FeS2
  Pyrrhotite      -30.54    -26.80    3.74  FeS
  Sulfur          -23.37    -25.48   -2.11  S

**For a gas, SI = log10(fugacity). Fugacity = pressure * phi / 1 atm.
  For ideal gases, phi = 1.

Reaction step 4.

Using solution 1.	PURE WATER
Using pure phase assemblage 1.	
Using reaction 1.	

Reaction 1.	

	  1.000e-12 moles of the following reaction have been added:

	                 Relative
	Reactant            moles

	Fe3S1                1.00000

	                 Relative
	Element             moles
	Fe                   3.00000
	S                    1.00000

-------------------------------Phase assemblage--------------------------------

                                                      Moles in assemblage
Phase               SI  log IAP  log K(T, P)   Initial       Final       Delta

Greigite         15.70   -17.07    -32.77    0.000e+00           0   0.000e+00
Mackinawite     -31.07   -26.22      4.85    0.000e+00           0   0.000e+00
Pyrite           27.90     5.46    -22.44    0.000e+00           0   0.000e+00
Pyrrhotite      -29.96   -26.22      3.74    0.000e+00           0   0.000e+00

-----------------------------Solution composition------------------------------

	Elements           Molality       Moles

	Fe                1.200e-11   1.200e-11
	N                 1.000e-05   1.000e-05
	S                 4.000e-12   4.000e-12

----------------------------Description of solution----------------------------

                                       pH  =   6.999      Charge balance
                                       pe  =  -1.437      Adjusted to redox equilibrium
                        Activity of water  =   1.000
                 Ionic strength (mol/kgw)  =   1.003e-07
                       Mass of water (kg)  =   1.000e+00
                 Total alkalinity (eq/kg)  =   3.199e-11
                         Temperature (°C)  =  25.00
                  Electrical balance (eq)  =  -2.655e-17
 Percent error, 100*(Cat-|An|)/(Cat+|An|)  =  -0.00
                               Iterations  =   4
                                  Total H  = 1.110124e+02
                                  Total O  = 5.550622e+01

----------------------------Distribution of species----------------------------

                                               Log       Log       Log    mole V
   Species          Molality    Activity  Molality  Activity     Gamma    cm³/mol

   OH-             1.003e-07   1.002e-07    -6.999    -6.999    -0.000     (0)  
   H+              1.003e-07   1.002e-07    -6.999    -6.999    -0.000      0.00
   H2O             5.551e+01   1.000e+00     1.744    -0.000     0.000     18.07
Fe(2)         1.200e-11
   Fe+2            1.196e-11   1.194e-11   -10.922   -10.923    -0.001     (0)  
   FeOH+           3.770e-14   3.769e-14   -13.424   -13.424    -0.000     (0)  
   Fe(OH)2         3.201e-18   3.201e-18   -17.495   -17.495     0.000     (0)  
   FeSO4           8.484e-21   8.484e-21   -20.071   -20.071     0.000     (0)  
   Fe(OH)3-        1.187e-21   1.187e-21   -20.925   -20.926    -0.000     (0)  
   Fe(HS)2         0.000e+00   0.000e+00   -60.441   -60.441     0.000     (0)  
   Fe(HS)3-        0.000e+00   0.000e+00   -87.638   -87.638    -0.000     (0)  
Fe(3)         9.755e-18
   Fe(OH)2+        8.639e-18   8.635e-18   -17.064   -17.064    -0.000     (0)  
   Fe(OH)3         1.012e-18   1.012e-18   -17.995   -17.995     0.000     (0)  
   Fe(OH)4-        1.011e-19   1.010e-19   -18.995   -18.996    -0.000     (0)  
   FeOH+2          2.617e-21   2.613e-21   -20.582   -20.583    -0.001     (0)  
   Fe+3            4.070e-26   4.056e-26   -25.390   -25.392    -0.001     (0)  
   FeSO4+          1.348e-33   1.348e-33   -32.870   -32.870    -0.000     (0)  
   Fe2(OH)2+4      1.849e-40   1.838e-40   -39.733   -39.736    -0.003     (0)  
   Fe(SO4)2-       0.000e+00   0.000e+00   -42.769   -42.769    -0.000     (0)  
   Fe3(OH)4+5      0.000e+00   0.000e+00   -54.475   -54.479    -0.004     (0)  
H(0)          1.064e-14
   H2              5.320e-15   5.320e-15   -14.274   -14.274     0.000     (0)  
N(-3)         1.599e-11
   NH4+            1.590e-11   1.590e-11   -10.799   -10.799    -0.000     (0)  
   NH3             9.039e-14   9.039e-14   -13.044   -13.044     0.000     (0)  
   NH4SO4-         8.182e-22   8.179e-22   -21.087   -21.087    -0.000     (0)  
N(0)          1.000e-05
   N2              5.000e-06   5.000e-06    -5.301    -5.301     0.000     (0)  
N(3)          0.000e+00
   NO2-            0.000e+00   0.000e+00   -53.935   -53.935    -0.000     (0)  
N(5)          0.000e+00
   NO3-            0.000e+00   0.000e+00   -71.381   -71.381    -0.000     (0)  
O(0)          0.000e+00
   O2              0.000e+00   0.000e+00   -63.832   -63.832     0.000     (0)  
S(-2)         1.110e-29
   HS-             5.836e-30   5.834e-30   -29.234   -29.234    -0.000     (0)  
   H2S             5.112e-30   5.112e-30   -29.291   -29.291     0.000     (0)  
   S5-2            1.481e-32   1.479e-32   -31.829   -31.830    -0.001     (0)  
   S4-2            8.643e-33   8.630e-33   -32.063   -32.064    -0.001     (0)  
   S6-2            7.668e-33   7.656e-33   -32.115   -32.116    -0.001     (0)  
   S-2             7.042e-36   7.031e-36   -35.152   -35.153    -0.001     (0)  
   S3-2            3.046e-36   3.041e-36   -35.516   -35.517    -0.001     (0)  
   S2-2            1.729e-37   1.726e-37   -36.762   -36.763    -0.001     (0)  
   Fe(HS)2         0.000e+00   0.000e+00   -60.441   -60.441     0.000     (0)  
   Fe(HS)3-        0.000e+00   0.000e+00   -87.638   -87.638    -0.000     (0)  
S(6)          4.000e-12
   SO4-2           4.000e-12   3.994e-12   -11.398   -11.399    -0.001     (0)  
   HSO4-           3.885e-17   3.884e-17   -16.411   -16.411    -0.000     (0)  
   FeSO4           8.484e-21   8.484e-21   -20.071   -20.071     0.000     (0)  
   NH4SO4-         8.182e-22   8.179e-22   -21.087   -21.087    -0.000     (0)  
   FeSO4+          1.348e-33   1.348e-33   -32.870   -32.870    -0.000     (0)  
   Fe(SO4)2-       0.000e+00   0.000e+00   -42.769   -42.769    -0.000     (0)  

------------------------------Saturation indices-------------------------------

  Phase               SI** log IAP   log K(298 K,   1 atm)

  Fe2(SO4)3       -88.56    -84.98    3.58  Fe2(SO4)3
  Fe3(OH)8        -25.94     -5.71   20.22  Fe3(OH)8
  Ferrihydrite     -9.29     -4.39    4.89  Fe(OH)3
  FeS(ppt)        -29.24    -33.16   -3.92  FeS
  Goethite         -4.89     -4.39    0.50  FeOOH
  Greigite       -100.39   -159.50  -59.11  Fe3S4
  Hematite         -4.78     -8.79   -4.01  Fe2O3
  Jarosite-H      -51.88    -63.98  -12.10  (H3O)Fe3(SO4)2(OH)6
  Lepidocrocite    -5.77     -4.39    1.37  FeOOH
  Mackinawite     -31.07    -26.22    4.85  FeS
  Maghemite       -15.18     -8.79    6.39  Fe2O3
  Magnetite        -9.45     -5.71    3.74  Fe3O4
  Melanterite     -19.85    -22.32   -2.47  FeSO4:7H2O
  N2(g)            -2.11     -5.30   -3.19  N2
  NO2(g)          -75.47    -66.48    8.99  NO2
  O2(g)           -60.87     22.25   83.12  O2
  pe_fix            1.44      1.44    0.00  e-
  pH_fix           -7.00     -7.00    0.00  H+
  Pyrite          -32.20    -93.19  -60.98  FeS2
  Pyrrhotite      -29.96    -26.22    3.74  FeS
  Sulfur          -23.00    -25.11   -2.11  S

**For a gas, SI = log10(fugacity). Fugacity = pressure * phi / 1 atm.
  For ideal gases, phi = 1.

Reaction step 5.

Using solution 1.	PURE WATER
Using pure phase assemblage 1.	
Using reaction 1.	

Reaction 1.	

	  1.000e-12 moles of the following reaction have been added:

	                 Relative
	Reactant            moles

	Fe3S1                1.00000

	                 Relative
	Element             moles
	Fe                   3.00000
	S                    1.00000

-------------------------------Phase assemblage--------------------------------

                                                      Moles in assemblage
Phase               SI  log IAP  log K(T, P)   Initial       Final       Delta

Greigite         15.60   -17.17    -32.77    0.000e+00           0   0.000e+00
Mackinawite     -30.61   -25.76      4.85    0.000e+00           0   0.000e+00
Pyrite           27.86     5.41    -22.44    0.000e+00           0   0.000e+00
Pyrrhotite      -29.51   -25.76      3.74    0.000e+00           0   0.000e+00

-----------------------------Solution composition------------------------------

	Elements           Molality       Moles

	Fe                1.500e-11   1.500e-11
	N                 1.000e-05   1.000e-05
	S                 5.000e-12   5.000e-12

----------------------------Description of solution----------------------------

                                       pH  =   6.999      Charge balance
                                       pe  =  -1.469      Adjusted to redox equilibrium
                        Activity of water  =   1.000
                 Ionic strength (mol/kgw)  =   1.003e-07
                       Mass of water (kg)  =   1.000e+00
                 Total alkalinity (eq/kg)  =   3.999e-11
                         Temperature (°C)  =  25.00
                  Electrical balance (eq)  =  -2.400e-17
 Percent error, 100*(Cat-|An|)/(Cat+|An|)  =  -0.00
                               Iterations  =   3
                                  Total H  = 1.110124e+02
                                  Total O  = 5.550622e+01

----------------------------Distribution of species----------------------------

                                               Log       Log       Log    mole V
   Species          Molality    Activity  Molality  Activity     Gamma    cm³/mol

   OH-             1.003e-07   1.003e-07    -6.999    -6.999    -0.000     (0)  
   H+              1.002e-07   1.002e-07    -6.999    -6.999    -0.000      0.00
   H2O             5.551e+01   1.000e+00     1.744    -0.000     0.000     18.07
Fe(2)         1.500e-11
   Fe+2            1.495e-11   1.493e-11   -10.825   -10.826    -0.001     (0)  
   FeOH+           4.713e-14   4.712e-14   -13.327   -13.327    -0.000     (0)  
   Fe(OH)2         4.002e-18   4.002e-18   -17.398   -17.398     0.000     (0)  
   FeSO4           1.326e-20   1.326e-20   -19.878   -19.878     0.000     (0)  
   Fe(OH)3-        1.484e-21   1.484e-21   -20.829   -20.829    -0.000     (0)  
   Fe(HS)2         0.000e+00   0.000e+00   -59.633   -59.633     0.000     (0)  
   Fe(HS)3-        0.000e+00   0.000e+00   -86.475   -86.475    -0.000     (0)  
Fe(3)         1.132e-17
   Fe(OH)2+        1.002e-17   1.002e-17   -16.999   -16.999    -0.000     (0)  
   Fe(OH)3         1.175e-18   1.175e-18   -17.930   -17.930     0.000     (0)  
   Fe(OH)4-        1.173e-19   1.172e-19   -18.931   -18.931    -0.000     (0)  
   FeOH+2          3.037e-21   3.033e-21   -20.518   -20.518    -0.001     (0)  
   Fe+3            4.723e-26   4.707e-26   -25.326   -25.327    -0.001     (0)  
   FeSO4+          1.955e-33   1.955e-33   -32.709   -32.709    -0.000     (0)  
   Fe2(OH)2+4      2.490e-40   2.475e-40   -39.604   -39.606    -0.003     (0)  
   Fe(SO4)2-       0.000e+00   0.000e+00   -42.510   -42.511    -0.000     (0)  
   Fe3(OH)4+5      0.000e+00   0.000e+00   -54.281   -54.285    -0.004     (0)  
H(0)          1.235e-14
   H2              6.174e-15   6.174e-15   -14.209   -14.209     0.000     (0)  
N(-3)         1.999e-11
   NH4+            1.988e-11   1.987e-11   -10.702   -10.702    -0.000     (0)  
   NH3             1.130e-13   1.130e-13   -12.947   -12.947     0.000     (0)  
   NH4SO4-         1.278e-21   1.278e-21   -20.893   -20.893    -0.000     (0)  
N(0)          1.000e-05
   N2              5.000e-06   5.000e-06    -5.301    -5.301     0.000     (0)  
N(3)          0.000e+00
   NO2-            0.000e+00   0.000e+00   -54.032   -54.032    -0.000     (0)  
N(5)          0.000e+00
   NO3-            0.000e+00   0.000e+00   -71.543   -71.543    -0.000     (0)  
O(0)          0.000e+00
   O2              0.000e+00   0.000e+00   -63.961   -63.961     0.000     (0)  
S(-2)         2.517e-29
   HS-             1.323e-29   1.323e-29   -28.878   -28.879    -0.000     (0)  
   H2S             1.159e-29   1.159e-29   -28.936   -28.936     0.000     (0)  
   S5-2            3.358e-32   3.353e-32   -31.474   -31.475    -0.001     (0)  
   S4-2            1.959e-32   1.957e-32   -31.708   -31.709    -0.001     (0)  
   S6-2            1.738e-32   1.736e-32   -31.760   -31.761    -0.001     (0)  
   S-2             1.596e-35   1.594e-35   -34.797   -34.798    -0.001     (0)  
   S3-2            6.905e-36   6.894e-36   -35.161   -35.162    -0.001     (0)  
   S2-2            3.919e-37   3.913e-37   -36.407   -36.408    -0.001     (0)  
   Fe(HS)2         0.000e+00   0.000e+00   -59.633   -59.633     0.000     (0)  
   Fe(HS)3-        0.000e+00   0.000e+00   -86.475   -86.475    -0.000     (0)  
S(6)          5.000e-12
   SO4-2           5.000e-12   4.993e-12   -11.301   -11.302    -0.001     (0)  
   HSO4-           4.857e-17   4.855e-17   -16.314   -16.314    -0.000     (0)  
   FeSO4           1.326e-20   1.326e-20   -19.878   -19.878     0.000     (0)  
   NH4SO4-         1.278e-21   1.278e-21   -20.893   -20.893    -0.000     (0)  
   FeSO4+          1.955e-33   1.955e-33   -32.709   -32.709    -0.000     (0)  
   Fe(SO4)2-       0.000e+00   0.000e+00   -42.510   -42.511    -0.000     (0)  

------------------------------Saturation indices-------------------------------

  Phase               SI** log IAP   log K(298 K,   1 atm)

  Fe2(SO4)3       -88.14    -84.56    3.58  Fe2(SO4)3
  Fe3(OH)8        -25.71     -5.49   20.22  Fe3(OH)8
  Ferrihydrite     -9.22     -4.33    4.89  Fe(OH)3
  FeS(ppt)        -28.79    -32.71   -3.92  FeS
  Goethite         -4.83     -4.33    0.50  FeOOH
  Greigite        -98.74   -157.85  -59.11  Fe3S4
  Hematite         -4.65     -8.66   -4.01  Fe2O3
  Jarosite-H      -51.49    -63.59  -12.10  (H3O)Fe3(SO4)2(OH)6
  Lepidocrocite    -5.70     -4.33    1.37  FeOOH
  Mackinawite     -30.61    -25.76    4.85  FeS
  Maghemite       -15.05     -8.66    6.39  Fe2O3
  Magnetite        -9.22     -5.49    3.74  Fe3O4
  Melanterite     -19.66    -22.13   -2.47  FeSO4:7H2O
  N2(g)            -2.11     -5.30   -3.19  N2
  NO2(g)          -75.60    -66.61    8.99  NO2
  O2(g)           -61.00     22.12   83.12  O2
  pe_fix            1.47      1.47    0.00  e-
  pH_fix           -7.00     -7.00    0.00  H+
  Pyrite          -31.46    -92.44  -60.98  FeS2
  Pyrrhotite      -29.51    -25.76    3.74  FeS
  Sulfur          -22.71    -24.82   -2.11  S

**For a gas, SI = log10(fugacity). Fugacity = pressure * phi / 1 atm.
  For ideal gases, phi = 1.

Reaction step 6.

Using solution 1.	PURE WATER
Using pure phase assemblage 1.	
Using reaction 1.	

Reaction 1.	

	  1.000e-12 moles of the following reaction have been added:

	                 Relative
	Reactant            moles

	Fe3S1                1.00000

	                 Relative
	Element             moles
	Fe                   3.00000
	S                    1.00000

-------------------------------Phase assemblage--------------------------------

                                                      Moles in assemblage
Phase               SI  log IAP  log K(T, P)   Initial       Final       Delta

Greigite         15.52   -17.25    -32.77    0.000e+00           0   0.000e+00
Mackinawite     -30.24   -25.39      4.85    0.000e+00           0   0.000e+00
Pyrite           27.82     5.37    -22.44    0.000e+00           0   0.000e+00
Pyrrhotite      -29.14   -25.39      3.74    0.000e+00           0   0.000e+00

-----------------------------Solution composition------------------------------

	Elements           Molality       Moles

	Fe                1.800e-11   1.800e-11
	N                 1.000e-05   1.000e-05
	S                 6.000e-12   6.000e-12

----------------------------Description of solution----------------------------

                                       pH  =   6.999      Charge balance
                                       pe  =  -1.496      Adjusted to redox equilibrium
                        Activity of water  =   1.000
                 Ionic strength (mol/kgw)  =   1.003e-07
                       Mass of water (kg)  =   1.000e+00
                 Total alkalinity (eq/kg)  =   4.799e-11
                         Temperature (°C)  =  25.00
                  Electrical balance (eq)  =  -2.342e-17
 Percent error, 100*(Cat-|An|)/(Cat+|An|)  =  -0.00
                               Iterations  =   3
                                  Total H  = 1.110124e+02
                                  Total O  = 5.550622e+01

----------------------------Distribution of species----------------------------

                                               Log       Log       Log    mole V
   Species          Molality    Activity  Molality  Activity     Gamma    cm³/mol

   OH-             1.003e-07   1.003e-07    -6.999    -6.999    -0.000     (0)  
   H+              1.002e-07   1.002e-07    -6.999    -6.999    -0.000      0.00
   H2O             5.551e+01   1.000e+00     1.744    -0.000     0.000     18.07
Fe(2)         1.800e-11
   Fe+2            1.794e-11   1.792e-11   -10.746   -10.747    -0.001     (0)  
   FeOH+           5.656e-14   5.654e-14   -13.247   -13.248    -0.000     (0)  
   Fe(OH)2         4.802e-18   4.802e-18   -17.319   -17.319     0.000     (0)  
   FeSO4           1.909e-20   1.909e-20   -19.719   -19.719     0.000     (0)  
   Fe(OH)3-        1.781e-21   1.781e-21   -20.749   -20.749    -0.000     (0)  
   Fe(HS)2         0.000e+00   0.000e+00   -58.973   -58.973     0.000     (0)  
   Fe(HS)3-        0.000e+00   0.000e+00   -85.524   -85.524    -0.000     (0)  
Fe(3)         1.278e-17
   Fe(OH)2+        1.132e-17   1.132e-17   -16.946   -16.946    -0.000     (0)  
   Fe(OH)3         1.327e-18   1.327e-18   -17.877   -17.877     0.000     (0)  
   Fe(OH)4-        1.325e-19   1.324e-19   -18.878   -18.878    -0.000     (0)  
   FeOH+2          3.429e-21   3.424e-21   -20.465   -20.465    -0.001     (0)  
   Fe+3            5.332e-26   5.315e-26   -25.273   -25.275    -0.001     (0)  
   FeSO4+          2.649e-33   2.648e-33   -32.577   -32.577    -0.000     (0)  
   Fe2(OH)2+4      3.175e-40   3.156e-40   -39.498   -39.501    -0.003     (0)  
   Fe(SO4)2-       0.000e+00   0.000e+00   -42.299   -42.300    -0.000     (0)  
   Fe3(OH)4+5      0.000e+00   0.000e+00   -54.123   -54.127    -0.004     (0)  
H(0)          1.394e-14
   H2              6.972e-15   6.972e-15   -14.157   -14.157     0.000     (0)  
N(-3)         2.399e-11
   NH4+            2.386e-11   2.385e-11   -10.622   -10.623    -0.000     (0)  
   NH3             1.356e-13   1.356e-13   -12.868   -12.868     0.000     (0)  
   NH4SO4-         1.841e-21   1.840e-21   -20.735   -20.735    -0.000     (0)  
N(0)          1.000e-05
   N2              5.000e-06   5.000e-06    -5.301    -5.301     0.000     (0)  
N(3)          0.000e+00
   NO2-            0.000e+00   0.000e+00   -54.111   -54.111    -0.000     (0)  
N(5)          0.000e+00
   NO3-            0.000e+00   0.000e+00   -71.675   -71.675    -0.000     (0)  
O(0)          0.000e+00
   O2              0.000e+00   0.000e+00   -64.067   -64.067     0.000     (0)  
S(-2)         4.912e-29
   HS-             2.582e-29   2.581e-29   -28.588   -28.588    -0.000     (0)  
   H2S             2.262e-29   2.262e-29   -28.646   -28.646     0.000     (0)  
   S5-2            6.555e-32   6.545e-32   -31.183   -31.184    -0.001     (0)  
   S4-2            3.825e-32   3.819e-32   -31.417   -31.418    -0.001     (0)  
   S6-2            3.393e-32   3.388e-32   -31.469   -31.470    -0.001     (0)  
   S-2             3.116e-35   3.111e-35   -34.506   -34.507    -0.001     (0)  
   S3-2            1.348e-35   1.346e-35   -34.870   -34.871    -0.001     (0)  
   S2-2            7.649e-37   7.637e-37   -36.116   -36.117    -0.001     (0)  
   Fe(HS)2         0.000e+00   0.000e+00   -58.973   -58.973     0.000     (0)  
   Fe(HS)3-        0.000e+00   0.000e+00   -85.524   -85.524    -0.000     (0)  
S(6)          6.000e-12
   SO4-2           6.000e-12   5.991e-12   -11.222   -11.222    -0.001     (0)  
   HSO4-           5.828e-17   5.826e-17   -16.234   -16.235    -0.000     (0)  
   FeSO4           1.909e-20   1.909e-20   -19.719   -19.719     0.000     (0)  
   NH4SO4-         1.841e-21   1.840e-21   -20.735   -20.735    -0.000     (0)  
   FeSO4+          2.649e-33   2.648e-33   -32.577   -32.577    -0.000     (0)  
   Fe(SO4)2-       0.000e+00   0.000e+00   -42.299   -42.300    -0.000     (0)  

------------------------------Saturation indices-------------------------------

  Phase               SI** log IAP   log K(298 K,   1 atm)

  Fe2(SO4)3       -87.80    -84.22    3.58  Fe2(SO4)3
  Fe3(OH)8        -25.52     -5.30   20.22  Fe3(OH)8
  Ferrihydrite     -9.17     -4.28    4.89  Fe(OH)3
  FeS(ppt)        -28.42    -32.34   -3.92  FeS
  Goethite         -4.78     -4.28    0.50  FeOOH
  Greigite        -97.40   -156.51  -59.11  Fe3S4
  Hematite         -4.55     -8.55   -4.01  Fe2O3
  Jarosite-H      -51.17    -63.27  -12.10  (H3O)Fe3(SO4)2(OH)6
  Lepidocrocite    -5.65     -4.28    1.37  FeOOH
  Mackinawite     -30.24    -25.39    4.85  FeS
  Maghemite       -14.94     -8.55    6.39  Fe2O3
  Magnetite        -9.04     -5.30    3.74  Fe3O4
  Melanterite     -19.50    -21.97   -2.47  FeSO4:7H2O
  N2(g)            -2.11     -5.30   -3.19  N2
  NO2(g)          -75.70    -66.72    8.99  NO2
  O2(g)           -61.11     22.01   83.12  O2
  pe_fix            1.50      1.50    0.00  e-
  pH_fix           -7.00     -7.00    0.00  H+
  Pyrite          -30.85    -91.84  -60.98  FeS2
  Pyrrhotite      -29.14    -25.39    3.74  FeS
  Sulfur          -22.47    -24.58   -2.11  S

**For a gas, SI = log10(fugacity). Fugacity = pressure * phi / 1 atm.
  For ideal gases, phi = 1.

Reaction step 7.

Using solution 1.	PURE WATER
Using pure phase assemblage 1.	
Using reaction 1.	

Reaction 1.	

	  1.000e-12 moles of the following reaction have been added:

	                 Relative
	Reactant            moles

	Fe3S1                1.00000

	                 Relative
	Element             moles
	Fe                   3.00000
	S                    1.00000

-------------------------------Phase assemblage--------------------------------

                                                      Moles in assemblage
Phase               SI  log IAP  log K(T, P)   Initial       Final       Delta

Greigite         15.46   -17.32    -32.77    0.000e+00           0   0.000e+00
Mackinawite     -29.93   -25.08      4.85    0.000e+00           0   0.000e+00
Pyrite           27.78     5.34    -22.44    0.000e+00           0   0.000e+00
Pyrrhotite      -28.82   -25.08      3.74    0.000e+00           0   0.000e+00

-----------------------------Solution composition------------------------------

	Elements           Molality       Moles

	Fe                2.100e-11   2.100e-11
	N                 1.000e-05   1.000e-05
	S                 7.000e-12   7.000e-12

----------------------------Description of solution----------------------------

                                       pH  =   6.999      Charge balance
                                       pe  =  -1.518      Adjusted to redox equilibrium
                        Activity of water  =   1.000
                 Ionic strength (mol/kgw)  =   1.003e-07
                       Mass of water (kg)  =   1.000e+00
                 Total alkalinity (eq/kg)  =   5.599e-11
                         Temperature (°C)  =  25.00
                  Electrical balance (eq)  =  -2.325e-17
 Percent error, 100*(Cat-|An|)/(Cat+|An|)  =  -0.00
                               Iterations  =   3
                                  Total H  = 1.110124e+02
                                  Total O  = 5.550622e+01

----------------------------Distribution of species----------------------------

                                               Log       Log       Log    mole V
   Species          Molality    Activity  Molality  Activity     Gamma    cm³/mol

   OH-             1.003e-07   1.003e-07    -6.999    -6.999    -0.000     (0)  
   H+              1.002e-07   1.002e-07    -6.999    -6.999    -0.000      0.00
   H2O             5.551e+01   1.000e+00     1.744    -0.000     0.000     18.07
Fe(2)         2.100e-11
   Fe+2            2.093e-11   2.090e-11   -10.679   -10.680    -0.001     (0)  
   FeOH+           6.599e-14   6.597e-14   -13.181   -13.181    -0.000     (0)  
   Fe(OH)2         5.603e-18   5.603e-18   -17.252   -17.252     0.000     (0)  
   FeSO4           2.598e-20   2.598e-20   -19.585   -19.585     0.000     (0)  
   Fe(OH)3-        2.078e-21   2.078e-21   -20.682   -20.682    -0.000     (0)  
   Fe(HS)2         0.000e+00   0.000e+00   -58.415   -58.415     0.000     (0)  
   Fe(HS)3-        0.000e+00   0.000e+00   -84.720   -84.720    -0.000     (0)  
Fe(3)         1.417e-17
   Fe(OH)2+        1.254e-17   1.254e-17   -16.902   -16.902    -0.000     (0)  
   Fe(OH)3         1.470e-18   1.470e-18   -17.833   -17.833     0.000     (0)  
   Fe(OH)4-        1.468e-19   1.467e-19   -18.833   -18.833    -0.000     (0)  
   FeOH+2          3.800e-21   3.795e-21   -20.420   -20.421    -0.001     (0)  
   Fe+3            5.909e-26   5.889e-26   -25.228   -25.230    -0.001     (0)  
   FeSO4+          3.425e-33   3.424e-33   -32.465   -32.465    -0.000     (0)  
   Fe2(OH)2+4      3.899e-40   3.876e-40   -39.409   -39.412    -0.003     (0)  
   Fe(SO4)2-       0.000e+00   0.000e+00   -42.121   -42.121    -0.000     (0)  
   Fe3(OH)4+5      0.000e+00   0.000e+00   -53.989   -53.993    -0.004     (0)  
H(0)          1.546e-14
   H2              7.728e-15   7.728e-15   -14.112   -14.112     0.000     (0)  
N(-3)         2.799e-11
   NH4+            2.784e-11   2.783e-11   -10.555   -10.556    -0.000     (0)  
   NH3             1.583e-13   1.583e-13   -12.801   -12.801     0.000     (0)  
   NH4SO4-         2.506e-21   2.506e-21   -20.601   -20.601    -0.000     (0)  
N(0)          1.000e-05
   N2              5.000e-06   5.000e-06    -5.301    -5.301     0.000     (0)  
N(3)          0.000e+00
   NO2-            0.000e+00   0.000e+00   -54.178   -54.178    -0.000     (0)  
N(5)          0.000e+00
   NO3-            0.000e+00   0.000e+00   -71.786   -71.787    -0.000     (0)  
O(0)          0.000e+00
   O2              0.000e+00   0.000e+00   -64.156   -64.156     0.000     (0)  
S(-2)         8.650e-29
   HS-             4.547e-29   4.545e-29   -28.342   -28.342    -0.000     (0)  
   H2S             3.982e-29   3.982e-29   -28.400   -28.400     0.000     (0)  
   S5-2            1.154e-31   1.153e-31   -30.938   -30.938    -0.001     (0)  
   S4-2            6.735e-32   6.725e-32   -31.172   -31.172    -0.001     (0)  
   S6-2            5.975e-32   5.966e-32   -31.224   -31.224    -0.001     (0)  
   S-2             5.487e-35   5.479e-35   -34.261   -34.261    -0.001     (0)  
   S3-2            2.373e-35   2.370e-35   -34.625   -34.625    -0.001     (0)  
   S2-2            1.347e-36   1.345e-36   -35.871   -35.871    -0.001     (0)  
   Fe(HS)2         0.000e+00   0.000e+00   -58.415   -58.415     0.000     (0)  
   Fe(HS)3-        0.000e+00   0.000e+00   -84.720   -84.720    -0.000     (0)  
S(6)          7.000e-12
   SO4-2           7.000e-12   6.990e-12   -11.155   -11.156    -0.001     (0)  
   HSO4-           6.799e-17   6.796e-17   -16.168   -16.168    -0.000     (0)  
   FeSO4           2.598e-20   2.598e-20   -19.585   -19.585     0.000     (0)  
   NH4SO4-         2.506e-21   2.506e-21   -20.601   -20.601    -0.000     (0)  
   FeSO4+          3.425e-33   3.424e-33   -32.465   -32.465    -0.000     (0)  
   Fe(SO4)2-       0.000e+00   0.000e+00   -42.121   -42.121    -0.000     (0)  

------------------------------Saturation indices-------------------------------

  Phase               SI** log IAP   log K(298 K,   1 atm)

  Fe2(SO4)3       -87.51    -83.93    3.58  Fe2(SO4)3
  Fe3(OH)8        -25.37     -5.15   20.22  Fe3(OH)8
  Ferrihydrite     -9.12     -4.23    4.89  Fe(OH)3
  FeS(ppt)        -28.11    -32.02   -3.92  FeS
  Goethite         -4.73     -4.23    0.50  FeOOH
  Greigite        -96.26   -155.37  -59.11  Fe3S4
  Hematite         -4.46     -8.47   -4.01  Fe2O3
  Jarosite-H      -50.91    -63.01  -12.10  (H3O)Fe3(SO4)2(OH)6
  Lepidocrocite    -5.60     -4.23    1.37  FeOOH
  Mackinawite     -29.93    -25.08    4.85  FeS
  Maghemite       -14.85     -8.47    6.39  Fe2O3
  Magnetite        -8.88     -5.15    3.74  Fe3O4
  Melanterite     -19.37    -21.84   -2.47  FeSO4:7H2O
  N2(g)            -2.11     -5.30   -3.19  N2
  NO2(g)          -75.79    -66.81    8.99  NO2
  O2(g)           -61.20     21.92   83.12  O2
  pe_fix            1.52      1.52    0.00  e-
  pH_fix           -7.00     -7.00    0.00  H+
  Pyrite          -30.34    -91.32  -60.98  FeS2
  Pyrrhotite      -28.82    -25.08    3.74  FeS
  Sulfur          -22.27    -24.38   -2.11  S

**For a gas, SI = log10(fugacity). Fugacity = pressure * phi / 1 atm.
  For ideal gases, phi = 1.

Reaction step 8.

Using solution 1.	PURE WATER
Using pure phase assemblage 1.	
Using reaction 1.	

Reaction 1.	

	  1.000e-12 moles of the following reaction have been added:

	                 Relative
	Reactant            moles

	Fe3S1                1.00000

	                 Relative
	Element             moles
	Fe                   3.00000
	S                    1.00000

-------------------------------Phase assemblage--------------------------------

                                                      Moles in assemblage
Phase               SI  log IAP  log K(T, P)   Initial       Final       Delta

Greigite         15.40   -17.37    -32.77    0.000e+00           0   0.000e+00
Mackinawite     -29.66   -24.81      4.85    0.000e+00           0   0.000e+00
Pyrite           27.75     5.31    -22.44    0.000e+00           0   0.000e+00
Pyrrhotite      -28.55   -24.81      3.74    0.000e+00           0   0.000e+00

-----------------------------Solution composition------------------------------

	Elements           Molality       Moles

	Fe                2.400e-11   2.400e-11
	N                 1.000e-05   1.000e-05
	S                 8.000e-12   8.000e-12

----------------------------Description of solution----------------------------

                                       pH  =   6.999      Charge balance
                                       pe  =  -1.537      Adjusted to redox equilibrium
                        Activity of water  =   1.000
                 Ionic strength (mol/kgw)  =   1.003e-07
                       Mass of water (kg)  =   1.000e+00
                 Total alkalinity (eq/kg)  =   6.399e-11
                         Temperature (°C)  =  25.00
                  Electrical balance (eq)  =  -2.319e-17
 Percent error, 100*(Cat-|An|)/(Cat+|An|)  =  -0.00
                               Iterations  =   3
                                  Total H  = 1.110124e+02
                                  Total O  = 5.550622e+01

----------------------------Distribution of species----------------------------

                                               Log       Log       Log    mole V
   Species          Molality    Activity  Molality  Activity     Gamma    cm³/mol

   OH-             1.003e-07   1.003e-07    -6.999    -6.999    -0.000     (0)  
   H+              1.002e-07   1.002e-07    -6.999    -6.999    -0.000      0.00
   H2O             5.551e+01   1.000e+00     1.744    -0.000     0.000     18.07
Fe(2)         2.400e-11
   Fe+2            2.392e-11   2.389e-11   -10.621   -10.622    -0.001     (0)  
   FeOH+           7.542e-14   7.539e-14   -13.123   -13.123    -0.000     (0)  
   Fe(OH)2         6.404e-18   6.404e-18   -17.194   -17.194     0.000     (0)  
   FeSO4           3.393e-20   3.393e-20   -19.469   -19.469     0.000     (0)  
   Fe(OH)3-        2.376e-21   2.375e-21   -20.624   -20.624    -0.000     (0)  
   Fe(HS)2         0.000e+00   0.000e+00   -57.932   -57.932     0.000     (0)  
   Fe(HS)3-        0.000e+00   0.000e+00   -84.024   -84.025    -0.000     (0)  
Fe(3)         1.549e-17
   Fe(OH)2+        1.371e-17   1.371e-17   -16.863   -16.863    -0.000     (0)  
   Fe(OH)3         1.607e-18   1.607e-18   -17.794   -17.794     0.000     (0)  
   Fe(OH)4-        1.605e-19   1.604e-19   -18.795   -18.795    -0.000     (0)  
   FeOH+2          4.154e-21   4.148e-21   -20.382   -20.382    -0.001     (0)  
   Fe+3            6.459e-26   6.437e-26   -25.190   -25.191    -0.001     (0)  
   FeSO4+          4.279e-33   4.277e-33   -32.369   -32.369    -0.000     (0)  
   Fe2(OH)2+4      4.659e-40   4.631e-40   -39.332   -39.334    -0.003     (0)  
   Fe(SO4)2-       0.000e+00   0.000e+00   -41.966   -41.966    -0.000     (0)  
   Fe3(OH)4+5      0.000e+00   0.000e+00   -53.873   -53.877    -0.004     (0)  
H(0)          1.689e-14
   H2              8.447e-15   8.447e-15   -14.073   -14.073     0.000     (0)  
N(-3)         3.199e-11
   NH4+            3.181e-11   3.180e-11   -10.497   -10.498    -0.000     (0)  
   NH3             1.808e-13   1.808e-13   -12.743   -12.743     0.000     (0)  
   NH4SO4-         3.273e-21   3.272e-21   -20.485   -20.485    -0.000     (0)  
N(0)          1.000e-05
   N2              5.000e-06   5.000e-06    -5.301    -5.301     0.000     (0)  
N(3)          0.000e+00
   NO2-            0.000e+00   0.000e+00   -54.236   -54.236    -0.000     (0)  
N(5)          0.000e+00
   NO3-            0.000e+00   0.000e+00   -71.883   -71.883    -0.000     (0)  
O(0)          0.000e+00
   O2              0.000e+00   0.000e+00   -64.233   -64.233     0.000     (0)  
S(-2)         1.411e-28
   HS-             7.417e-29   7.414e-29   -28.130   -28.130    -0.000     (0)  
   H2S             6.496e-29   6.496e-29   -28.187   -28.187     0.000     (0)  
   S5-2            1.883e-31   1.880e-31   -30.725   -30.726    -0.001     (0)  
   S4-2            1.099e-31   1.097e-31   -30.959   -30.960    -0.001     (0)  
   S6-2            9.747e-32   9.732e-32   -31.011   -31.012    -0.001     (0)  
   S-2             8.951e-35   8.937e-35   -34.048   -34.049    -0.001     (0)  
   S3-2            3.871e-35   3.866e-35   -34.412   -34.413    -0.001     (0)  
   S2-2            2.197e-36   2.194e-36   -35.658   -35.659    -0.001     (0)  
   Fe(HS)2         0.000e+00   0.000e+00   -57.932   -57.932     0.000     (0)  
   Fe(HS)3-        0.000e+00   0.000e+00   -84.024   -84.025    -0.000     (0)  
S(6)          8.000e-12
   SO4-2           8.000e-12   7.988e-12   -11.097   -11.098    -0.001     (0)  
   HSO4-           7.770e-17   7.767e-17   -16.110   -16.110    -0.000     (0)  
   FeSO4           3.393e-20   3.393e-20   -19.469   -19.469     0.000     (0)  
   NH4SO4-         3.273e-21   3.272e-21   -20.485   -20.485    -0.000     (0)  
   FeSO4+          4.279e-33   4.277e-33   -32.369   -32.369    -0.000     (0)  
   Fe(SO4)2-       0.000e+00   0.000e+00   -41.966   -41.966    -0.000     (0)  

------------------------------Saturation indices-------------------------------

  Phase               SI** log IAP   log K(298 K,   1 atm)

  Fe2(SO4)3       -87.26    -83.68    3.58  Fe2(SO4)3
  Fe3(OH)8        -25.23     -5.01   20.22  Fe3(OH)8
  Ferrihydrite     -9.08     -4.19    4.89  Fe(OH)3
  FeS(ppt)        -27.84    -31.75   -3.92  FeS
  Goethite         -4.69     -4.19    0.50  FeOOH
  Greigite        -95.27   -154.38  -59.11  Fe3S4
  Hematite         -4.38     -8.39   -4.01  Fe2O3
  Jarosite-H      -50.67    -62.77  -12.10  (H3O)Fe3(SO4)2(OH)6
  Lepidocrocite    -5.56     -4.19    1.37  FeOOH
  Mackinawite     -29.66    -24.81    4.85  FeS
  Maghemite       -14.77     -8.39    6.39  Fe2O3
  Magnetite        -8.75     -5.01    3.74  Fe3O4
  Melanterite     -19.25    -21.72   -2.47  FeSO4:7H2O
  N2(g)            -2.11     -5.30   -3.19  N2
  NO2(g)          -75.87    -66.88    8.99  NO2
  O2(g)           -61.27     21.85   83.12  O2
  pe_fix            1.54      1.54    0.00  e-
  pH_fix           -7.00     -7.00    0.00  H+
  Pyrite          -29.89    -90.88  -60.98  FeS2
  Pyrrhotite      -28.55    -24.81    3.74  FeS
  Sulfur          -22.10    -24.21   -2.11  S

**For a gas, SI = log10(fugacity). Fugacity = pressure * phi / 1 atm.
  For ideal gases, phi = 1.

Reaction step 9.

Using solution 1.	PURE WATER
Using pure phase assemblage 1.	
Using reaction 1.	

Reaction 1.	

	  1.000e-12 moles of the following reaction have been added:

	                 Relative
	Reactant            moles

	Fe3S1                1.00000

	                 Relative
	Element             moles
	Fe                   3.00000
	S                    1.00000

-------------------------------Phase assemblage--------------------------------

                                                      Moles in assemblage
Phase               SI  log IAP  log K(T, P)   Initial       Final       Delta

Greigite         15.35   -17.43    -32.77    0.000e+00           0   0.000e+00
Mackinawite     -29.42   -24.57      4.85    0.000e+00           0   0.000e+00
Pyrite           27.73     5.29    -22.44    0.000e+00           0   0.000e+00
Pyrrhotite      -28.31   -24.57      3.74    0.000e+00           0   0.000e+00

-----------------------------Solution composition------------------------------

	Elements           Molality       Moles

	Fe                2.700e-11   2.700e-11
	N                 1.000e-05   1.000e-05
	S                 9.000e-12   9.000e-12

----------------------------Description of solution----------------------------

                                       pH  =   6.999      Charge balance
                                       pe  =  -1.555      Adjusted to redox equilibrium
                        Activity of water  =   1.000
                 Ionic strength (mol/kgw)  =   1.004e-07
                       Mass of water (kg)  =   1.000e+00
                 Total alkalinity (eq/kg)  =   7.198e-11
                         Temperature (°C)  =  25.00
                  Electrical balance (eq)  =  -2.317e-17
 Percent error, 100*(Cat-|An|)/(Cat+|An|)  =  -0.00
                               Iterations  =   3
                                  Total H  = 1.110124e+02
                                  Total O  = 5.550622e+01

----------------------------Distribution of species----------------------------

                                               Log       Log       Log    mole V
   Species          Molality    Activity  Molality  Activity     Gamma    cm³/mol

   OH-             1.003e-07   1.003e-07    -6.999    -6.999    -0.000     (0)  
   H+              1.002e-07   1.002e-07    -6.999    -6.999    -0.000      0.00
   H2O             5.551e+01   1.000e+00     1.744    -0.000     0.000     18.07
Fe(2)         2.700e-11
   Fe+2            2.692e-11   2.688e-11   -10.570   -10.571    -0.001     (0)  
   FeOH+           8.485e-14   8.482e-14   -13.071   -13.071    -0.000     (0)  
   Fe(OH)2         7.205e-18   7.205e-18   -17.142   -17.142     0.000     (0)  
   FeSO4           4.295e-20   4.295e-20   -19.367   -19.367     0.000     (0)  
   Fe(OH)3-        2.673e-21   2.672e-21   -20.573   -20.573    -0.000     (0)  
   Fe(HS)2         0.000e+00   0.000e+00   -57.506   -57.506     0.000     (0)  
   Fe(HS)3-        0.000e+00   0.000e+00   -83.411   -83.411    -0.000     (0)  
Fe(3)         1.675e-17
   Fe(OH)2+        1.483e-17   1.483e-17   -16.829   -16.829    -0.000     (0)  
   Fe(OH)3         1.739e-18   1.739e-18   -17.760   -17.760     0.000     (0)  
   Fe(OH)4-        1.736e-19   1.736e-19   -18.760   -18.761    -0.000     (0)  
   FeOH+2          4.494e-21   4.487e-21   -20.347   -20.348    -0.001     (0)  
   Fe+3            6.987e-26   6.963e-26   -25.156   -25.157    -0.001     (0)  
   FeSO4+          5.207e-33   5.205e-33   -32.283   -32.284    -0.000     (0)  
   Fe2(OH)2+4      5.451e-40   5.419e-40   -39.263   -39.266    -0.003     (0)  
   Fe(SO4)2-       0.000e+00   0.000e+00   -41.830   -41.830    -0.000     (0)  
   Fe3(OH)4+5      0.000e+00   0.000e+00   -53.771   -53.775    -0.004     (0)  
H(0)          1.827e-14
   H2              9.136e-15   9.136e-15   -14.039   -14.039     0.000     (0)  
N(-3)         3.598e-11
   NH4+            3.578e-11   3.577e-11   -10.446   -10.447    -0.000     (0)  
   NH3             2.034e-13   2.034e-13   -12.692   -12.692     0.000     (0)  
   NH4SO4-         4.142e-21   4.141e-21   -20.383   -20.383    -0.000     (0)  
N(0)          1.000e-05
   N2              5.000e-06   5.000e-06    -5.301    -5.301     0.000     (0)  
N(3)          0.000e+00
   NO2-            0.000e+00   0.000e+00   -54.287   -54.288    -0.000     (0)  
N(5)          0.000e+00
   NO3-            0.000e+00   0.000e+00   -71.968   -71.968    -0.000     (0)  
O(0)          0.000e+00
   O2              0.000e+00   0.000e+00   -64.302   -64.302     0.000     (0)  
S(-2)         2.172e-28
   HS-             1.142e-28   1.142e-28   -27.942   -27.942    -0.000     (0)  
   H2S             1.000e-28   1.000e-28   -28.000   -28.000     0.000     (0)  
   S5-2            2.900e-31   2.895e-31   -30.538   -30.538    -0.001     (0)  
   S4-2            1.692e-31   1.689e-31   -30.772   -30.772    -0.001     (0)  
   S6-2            1.501e-31   1.499e-31   -30.824   -30.824    -0.001     (0)  
   S-2             1.378e-34   1.376e-34   -33.861   -33.861    -0.001     (0)  
   S3-2            5.961e-35   5.952e-35   -34.225   -34.225    -0.001     (0)  
   S2-2            3.383e-36   3.378e-36   -35.471   -35.471    -0.001     (0)  
   Fe(HS)2         0.000e+00   0.000e+00   -57.506   -57.506     0.000     (0)  
   Fe(HS)3-        0.000e+00   0.000e+00   -83.411   -83.411    -0.000     (0)  
S(6)          9.000e-12
   SO4-2           9.000e-12   8.987e-12   -11.046   -11.046    -0.001     (0)  
   HSO4-           8.741e-17   8.737e-17   -16.058   -16.059    -0.000     (0)  
   FeSO4           4.295e-20   4.295e-20   -19.367   -19.367     0.000     (0)  
   NH4SO4-         4.142e-21   4.141e-21   -20.383   -20.383    -0.000     (0)  
   FeSO4+          5.207e-33   5.205e-33   -32.283   -32.284    -0.000     (0)  
   Fe(SO4)2-       0.000e+00   0.000e+00   -41.830   -41.830    -0.000     (0)  

------------------------------Saturation indices-------------------------------

  Phase               SI** log IAP   log K(298 K,   1 atm)

  Fe2(SO4)3       -87.03    -83.45    3.58  Fe2(SO4)3
  Fe3(OH)8        -25.11     -4.89   20.22  Fe3(OH)8
  Ferrihydrite     -9.05     -4.16    4.89  Fe(OH)3
  FeS(ppt)        -27.60    -31.51   -3.92  FeS
  Goethite         -4.66     -4.16    0.50  FeOOH
  Greigite        -94.40   -153.51  -59.11  Fe3S4
  Hematite         -4.31     -8.32   -4.01  Fe2O3
  Jarosite-H      -50.47    -62.57  -12.10  (H3O)Fe3(SO4)2(OH)6
  Lepidocrocite    -5.53     -4.16    1.37  FeOOH
  Mackinawite     -29.42    -24.57    4.85  FeS
  Maghemite       -14.71     -8.32    6.39  Fe2O3
  Magnetite        -8.63     -4.89    3.74  Fe3O4
  Melanterite     -19.15    -21.62   -2.47  FeSO4:7H2O
  N2(g)            -2.11     -5.30   -3.19  N2
  NO2(g)          -75.94    -66.95    8.99  NO2
  O2(g)           -61.34     21.78   83.12  O2
  pe_fix            1.55      1.55    0.00  e-
  pH_fix           -7.00     -7.00    0.00  H+
  Pyrite          -29.50    -90.49  -60.98  FeS2
  Pyrrhotite      -28.31    -24.57    3.74  FeS
  Sulfur          -21.94    -24.05   -2.11  S

**For a gas, SI = log10(fugacity). Fugacity = pressure * phi / 1 atm.
  For ideal gases, phi = 1.

Reaction step 10.

Using solution 1.	PURE WATER
Using pure phase assemblage 1.	
Using reaction 1.	

Reaction 1.	

	  1.000e-12 moles of the following reaction have been added:

	                 Relative
	Reactant            moles

	Fe3S1                1.00000

	                 Relative
	Element             moles
	Fe                   3.00000
	S                    1.00000

-------------------------------Phase assemblage--------------------------------

                                                      Moles in assemblage
Phase               SI  log IAP  log K(T, P)   Initial       Final       Delta

Greigite         15.30   -17.47    -32.77    0.000e+00           0   0.000e+00
Mackinawite     -29.21   -24.36      4.85    0.000e+00           0   0.000e+00
Pyrite           27.70     5.26    -22.44    0.000e+00           0   0.000e+00
Pyrrhotite      -28.10   -24.36      3.74    0.000e+00           0   0.000e+00

-----------------------------Solution composition------------------------------

	Elements           Molality       Moles

	Fe                3.000e-11   3.000e-11
	N                 1.000e-05   1.000e-05
	S                 1.000e-11   1.000e-11

----------------------------Description of solution----------------------------

                                       pH  =   6.999      Charge balance
                                       pe  =  -1.570      Adjusted to redox equilibrium
                        Activity of water  =   1.000
                 Ionic strength (mol/kgw)  =   1.004e-07
                       Mass of water (kg)  =   1.000e+00
                 Total alkalinity (eq/kg)  =   7.998e-11
                         Temperature (°C)  =  25.00
                  Electrical balance (eq)  =  -2.316e-17
 Percent error, 100*(Cat-|An|)/(Cat+|An|)  =  -0.00
                               Iterations  =   3
                                  Total H  = 1.110124e+02
                                  Total O  = 5.550622e+01

----------------------------Distribution of species----------------------------

                                               Log       Log       Log    mole V
   Species          Molality    Activity  Molality  Activity     Gamma    cm³/mol

   OH-             1.003e-07   1.003e-07    -6.999    -6.999    -0.000     (0)  
   H+              1.002e-07   1.002e-07    -6.999    -6.999    -0.000      0.00
   H2O             5.551e+01   1.000e+00     1.744    -0.000     0.000     18.07
Fe(2)         3.000e-11
   Fe+2            2.991e-11   2.986e-11   -10.524   -10.525    -0.001     (0)  
   FeOH+           9.428e-14   9.425e-14   -13.026   -13.026    -0.000     (0)  
   Fe(OH)2         8.007e-18   8.007e-18   -17.097   -17.097     0.000     (0)  
   FeSO4           5.302e-20   5.302e-20   -19.276   -19.276     0.000     (0)  
   Fe(OH)3-        2.970e-21   2.969e-21   -20.527   -20.527    -0.000     (0)  
   Fe(HS)2         0.000e+00   0.000e+00   -57.124   -57.124     0.000     (0)  
   Fe(HS)3-        0.000e+00   0.000e+00   -82.862   -82.862    -0.000     (0)  
Fe(3)         1.797e-17
   Fe(OH)2+        1.591e-17   1.591e-17   -16.798   -16.798    -0.000     (0)  
   Fe(OH)3         1.866e-18   1.866e-18   -17.729   -17.729     0.000     (0)  
   Fe(OH)4-        1.863e-19   1.862e-19   -18.730   -18.730    -0.000     (0)  
   FeOH+2          4.821e-21   4.813e-21   -20.317   -20.318    -0.001     (0)  
   Fe+3            7.494e-26   7.469e-26   -25.125   -25.127    -0.001     (0)  
   FeSO4+          6.206e-33   6.203e-33   -32.207   -32.207    -0.000     (0)  
   Fe2(OH)2+4      6.273e-40   6.236e-40   -39.203   -39.205    -0.003     (0)  
   Fe(SO4)2-       0.000e+00   0.000e+00   -41.708   -41.708    -0.000     (0)  
   Fe3(OH)4+5      0.000e+00   0.000e+00   -53.679   -53.683    -0.004     (0)  
H(0)          1.960e-14
   H2              9.802e-15   9.802e-15   -14.009   -14.009     0.000     (0)  
N(-3)         3.998e-11
   NH4+            3.976e-11   3.974e-11   -10.401   -10.401    -0.000     (0)  
   NH3             2.261e-13   2.261e-13   -12.646   -12.646     0.000     (0)  
   NH4SO4-         5.114e-21   5.112e-21   -20.291   -20.291    -0.000     (0)  
N(0)          1.000e-05
   N2              5.000e-06   5.000e-06    -5.301    -5.301     0.000     (0)  
N(3)          0.000e+00
   NO2-            0.000e+00   0.000e+00   -54.333   -54.333    -0.000     (0)  
N(5)          0.000e+00
   NO3-            0.000e+00   0.000e+00   -72.044   -72.045    -0.000     (0)  
O(0)          0.000e+00
   O2              0.000e+00   0.000e+00   -64.363   -64.363     0.000     (0)  
S(-2)         3.197e-28
   HS-             1.681e-28   1.680e-28   -27.774   -27.775    -0.000     (0)  
   H2S             1.472e-28   1.472e-28   -27.832   -27.832     0.000     (0)  
   S5-2            4.268e-31   4.261e-31   -30.370   -30.370    -0.001     (0)  
   S4-2            2.490e-31   2.486e-31   -30.604   -30.604    -0.001     (0)  
   S6-2            2.209e-31   2.206e-31   -30.656   -30.656    -0.001     (0)  
   S-2             2.029e-34   2.026e-34   -33.693   -33.693    -0.001     (0)  
   S3-2            8.774e-35   8.761e-35   -34.057   -34.057    -0.001     (0)  
   S2-2            4.980e-36   4.972e-36   -35.303   -35.303    -0.001     (0)  
   Fe(HS)2         0.000e+00   0.000e+00   -57.124   -57.124     0.000     (0)  
   Fe(HS)3-        0.000e+00   0.000e+00   -82.862   -82.862    -0.000     (0)  
S(6)          1.000e-11
   SO4-2           1.000e-11   9.985e-12   -11.000   -11.001    -0.001     (0)  
   HSO4-           9.711e-17   9.708e-17   -16.013   -16.013    -0.000     (0)  
   FeSO4           5.302e-20   5.302e-20   -19.276   -19.276     0.000     (0)  
   NH4SO4-         5.114e-21   5.112e-21   -20.291   -20.291    -0.000     (0)  
   FeSO4+          6.206e-33   6.203e-33   -32.207   -32.207    -0.000     (0)  
   Fe(SO4)2-       0.000e+00   0.000e+00   -41.708   -41.708    -0.000     (0)  

------------------------------Saturation indices-------------------------------

  Phase               SI** log IAP   log K(298 K,   1 atm)

  Fe2(SO4)3       -86.84    -83.26    3.58  Fe2(SO4)3
  Fe3(OH)8        -25.01     -4.78   20.22  Fe3(OH)8
  Ferrihydrite     -9.02     -4.13    4.89  Fe(OH)3
[...]
   H2O             5.551e+01   9.979e-01     1.744    -0.001     0.000     18.07
Fe(2)         2.435e-22
   Fe+2            1.762e-22   8.928e-23   -21.754   -22.049    -0.295     (0)  
   FeSO4           6.729e-23   6.793e-23   -22.172   -22.168     0.004     (0)  
   Fe(HS)2         6.507e-27   6.568e-27   -26.187   -26.183     0.004     (0)  
   FeOH+           1.225e-30   1.024e-30   -29.912   -29.990    -0.078     (0)  
   Fe(HS)3-        2.469e-31   2.055e-31   -30.608   -30.687    -0.080     (0)  
   Fe(OH)2         3.134e-40   3.163e-40   -39.504   -39.500     0.004     (0)  
   Fe(OH)3-        0.000e+00   0.000e+00   -48.293   -48.370    -0.078     (0)  
Fe(3)         4.110e-31
   FeSO4+          3.322e-31   2.779e-31   -30.479   -30.556    -0.078     (0)  
   Fe(SO4)2-       4.517e-32   3.760e-32   -31.345   -31.425    -0.080     (0)  
   Fe+3            2.980e-32   7.809e-33   -31.526   -32.107    -0.582     (0)  
   FeOH+2          3.736e-33   1.829e-33   -32.428   -32.738    -0.310     (0)  
   Fe(OH)2+        2.618e-35   2.198e-35   -34.582   -34.658    -0.076     (0)  
   Fe(OH)3         0.000e+00   0.000e+00   -41.032   -41.028     0.004     (0)  
   Fe(OH)4-        0.000e+00   0.000e+00   -47.393   -47.469    -0.076     (0)  
   Fe2(OH)2+4      0.000e+00   0.000e+00   -62.771   -64.045    -1.274     (0)  
   Fe3(OH)4+5      0.000e+00   0.000e+00   -94.393   -96.383    -1.991     (0)  
H(0)          1.197e-12
   H2              5.983e-13   6.040e-13   -12.223   -12.219     0.004     (0)  
N(-3)         1.002e-05
   NH4+            9.506e-06   7.752e-06    -5.022    -5.111    -0.089     (0)  
   NH4SO4-         5.108e-07   4.273e-07    -6.292    -6.369    -0.078     (0)  
   NH3             1.591e-13   1.606e-13   -12.798   -12.794     0.004     (0)  
N(0)          2.138e-11
   N2              1.069e-11   1.079e-11   -10.971   -10.967     0.004     (0)  
N(3)          0.000e+00
   NO2-            0.000e+00   0.000e+00   -65.212   -65.291    -0.080     (0)  
N(5)          0.000e+00
   NO3-            0.000e+00   0.000e+00   -84.707   -84.793    -0.086     (0)  
O(0)          0.000e+00
   O2              0.000e+00   0.000e+00   -67.948   -67.944     0.004     (0)  
S(-2)         6.844e-02
   H2S             6.844e-02   6.909e-02    -1.165    -1.161     0.004     (0)  
   HS-             3.485e-07   2.873e-07    -6.458    -6.542    -0.084     (0)  
   S5-2            5.527e-15   2.654e-15   -14.258   -14.576    -0.319     (0)  
   S4-2            3.225e-15   1.549e-15   -14.492   -14.810    -0.319     (0)  
   S6-2            2.861e-15   1.374e-15   -14.544   -14.862    -0.319     (0)  
   S-2             2.577e-18   1.262e-18   -17.589   -17.899    -0.310     (0)  
   S3-2            1.136e-18   5.457e-19   -17.945   -18.263    -0.319     (0)  
   S2-2            6.449e-20   3.097e-20   -19.191   -19.509    -0.319     (0)  
   Fe(HS)2         6.507e-27   6.568e-27   -26.187   -26.183     0.004     (0)  
   Fe(HS)3-        2.469e-31   2.055e-31   -30.608   -30.687    -0.080     (0)  
S(6)          2.282e-02
   HSO4-           1.371e-02   1.142e-02    -1.863    -1.942    -0.080     (0)  
   SO4-2           9.106e-03   4.279e-03    -2.041    -2.369    -0.328     (0)  
   NH4SO4-         5.108e-07   4.273e-07    -6.292    -6.369    -0.078     (0)  
   FeSO4           6.729e-23   6.793e-23   -22.172   -22.168     0.004     (0)  
   FeSO4+          3.322e-31   2.779e-31   -30.479   -30.556    -0.078     (0)  
   Fe(SO4)2-       4.517e-32   3.760e-32   -31.345   -31.425    -0.080     (0)  

------------------------------Saturation indices-------------------------------

  Phase               SI** log IAP   log K(298 K,   1 atm)

  Fe2(SO4)3       -74.90    -71.32    3.58  Fe2(SO4)3
  Fe3(OH)8        -94.01    -73.79   20.22  Fe3(OH)8
  Ferrihydrite    -32.32    -27.43    4.89  Fe(OH)3
  FeS(ppt)        -23.12    -27.03   -3.92  FeS
  Goethite        -27.93    -27.43    0.50  FeOOH
  Greigite        -55.93   -115.04  -59.11  Fe3S4
  Hematite        -50.85    -54.85   -4.01  Fe2O3
  Jarosite-H      -81.16    -93.26  -12.10  (H3O)Fe3(SO4)2(OH)6
  Lepidocrocite   -28.80    -27.43    1.37  FeOOH
  Mackinawite     -24.94    -20.09    4.85  FeS
  Maghemite       -61.24    -54.85    6.39  Fe2O3
  Magnetite       -77.52    -73.78    3.74  Fe3O4
  Melanterite     -21.95    -24.42   -2.47  FeSO4:7H2O
  N2(g)            -7.78    -10.97   -3.19  N2
  NO2(g)          -82.41    -73.43    8.99  NO2
  O2(g)           -64.98     18.14   83.12  O2
  pe_fix           -2.97     -2.97    0.00  e-
  pH_fix           -1.56     -1.56    0.00  H+
  Pyrite            0.00    -60.98  -60.98  FeS2
  Pyrrhotite      -23.83    -20.09    3.74  FeS
  Sulfur            3.08      0.97   -2.11  S

**For a gas, SI = log10(fugacity). Fugacity = pressure * phi / 1 atm.
  For ideal gases, phi = 1.

Reaction step 109.

Using solution 1.	PURE WATER
Using pure phase assemblage 1.	
Using reaction 1.	

Reaction 1.	

	  1.000e-02 moles of the following reaction have been added:

	                 Relative
	Reactant            moles

	Fe1S3                1.00000

	                 Relative
	Element             moles
	Fe                   1.00000
	S                    3.00000

-------------------------------Phase assemblage--------------------------------

                                                      Moles in assemblage
Phase               SI  log IAP  log K(T, P)   Initial       Final       Delta

Greigite         48.76    15.99    -32.77    0.000e+00           0   0.000e+00
Mackinawite     -25.00   -20.15      4.85    0.000e+00           0   0.000e+00
Pyrite           33.48    11.04    -22.44    9.111e-02   1.011e-01   1.000e-02
Pyrrhotite      -23.89   -20.15      3.74    0.000e+00           0   0.000e+00

-----------------------------Solution composition------------------------------

	Elements           Molality       Moles

	Fe                2.350e-22   2.346e-22
	N                 1.002e-05   1.000e-05
	S                 1.013e-01   1.011e-01

----------------------------Description of solution----------------------------

                                       pH  =   1.522      Charge balance
                                       pe  =   3.018      Adjusted to redox equilibrium
                        Activity of water  =   0.998
                 Ionic strength (mol/kgw)  =   4.472e-02
                       Mass of water (kg)  =   9.982e-01
                 Total alkalinity (eq/kg)  =  -5.065e-02
                         Temperature (°C)  =  25.00
                  Electrical balance (eq)  =   1.448e-11
 Percent error, 100*(Cat-|An|)/(Cat+|An|)  =   0.00
                               Iterations  =   8
                                  Total H  = 1.110124e+02
                                  Total O  = 5.550622e+01

----------------------------Distribution of species----------------------------

                                               Log       Log       Log    mole V
   Species          Molality    Activity  Molality  Activity     Gamma    cm³/mol

   H+              3.501e-02   3.005e-02    -1.456    -1.522    -0.066      0.00
   OH-             4.073e-13   3.335e-13   -12.390   -12.477    -0.087     (0)  
   H2O             5.551e+01   9.977e-01     1.744    -0.001     0.000     18.07
Fe(2)         2.350e-22
   Fe+2            1.694e-22   8.403e-23   -21.771   -22.076    -0.304     (0)  
   FeSO4           6.563e-23   6.631e-23   -22.183   -22.178     0.004     (0)  
   Fe(HS)2         6.326e-27   6.391e-27   -26.199   -26.194     0.004     (0)  
   FeOH+           1.061e-30   8.823e-31   -29.974   -30.054    -0.080     (0)  
   Fe(HS)3-        2.457e-31   2.033e-31   -30.610   -30.692    -0.082     (0)  
   Fe(OH)2         2.468e-40   2.493e-40   -39.608   -39.603     0.004     (0)  
   Fe(OH)3-        0.000e+00   0.000e+00   -48.432   -48.512    -0.080     (0)  
Fe(3)         4.481e-31
   FeSO4+          3.613e-31   3.005e-31   -30.442   -30.522    -0.080     (0)  
   Fe(SO4)2-       5.095e-32   4.216e-32   -31.293   -31.375    -0.082     (0)  
   Fe+3            3.221e-32   8.142e-33   -31.492   -32.089    -0.597     (0)  
   FeOH+2          3.648e-33   1.745e-33   -32.438   -32.758    -0.320     (0)  
   Fe(OH)2+        2.299e-35   1.919e-35   -34.639   -34.717    -0.078     (0)  
   Fe(OH)3         0.000e+00   0.000e+00   -41.130   -41.126     0.004     (0)  
   Fe(OH)4-        0.000e+00   0.000e+00   -47.526   -47.605    -0.078     (0)  
   Fe2(OH)2+4      0.000e+00   0.000e+00   -62.771   -64.086    -1.315     (0)  
   Fe3(OH)4+5      0.000e+00   0.000e+00   -94.429   -96.483    -2.055     (0)  
H(0)          1.163e-12
   H2              5.817e-13   5.877e-13   -12.235   -12.231     0.004     (0)  
N(-3)         1.002e-05
   NH4+            9.490e-06   7.681e-06    -5.023    -5.115    -0.092     (0)  
   NH4SO4-         5.279e-07   4.390e-07    -6.277    -6.358    -0.080     (0)  
   NH3             1.442e-13   1.457e-13   -12.841   -12.837     0.004     (0)  
N(0)          1.906e-11
   N2              9.531e-12   9.630e-12   -11.021   -11.016     0.004     (0)  
N(3)          0.000e+00
   NO2-            0.000e+00   0.000e+00   -65.255   -65.337    -0.082     (0)  
N(5)          0.000e+00
   NO3-            0.000e+00   0.000e+00   -84.738   -84.827    -0.089     (0)  
O(0)          0.000e+00
   O2              0.000e+00   0.000e+00   -67.925   -67.920     0.004     (0)  
S(-2)         7.597e-02
   H2S             7.597e-02   7.675e-02    -1.119    -1.115     0.004     (0)  
   HS-             3.567e-07   2.921e-07    -6.448    -6.534    -0.087     (0)  
   S5-2            5.266e-15   2.470e-15   -14.279   -14.607    -0.329     (0)  
   S4-2            3.072e-15   1.441e-15   -14.513   -14.841    -0.329     (0)  
   S6-2            2.725e-15   1.279e-15   -14.565   -14.893    -0.329     (0)  
   S-2             2.454e-18   1.174e-18   -17.610   -17.930    -0.320     (0)  
   S3-2            1.083e-18   5.078e-19   -17.966   -18.294    -0.329     (0)  
   S2-2            6.144e-20   2.882e-20   -19.212   -19.540    -0.329     (0)  
   Fe(HS)2         6.326e-27   6.391e-27   -26.199   -26.194     0.004     (0)  
   Fe(HS)3-        2.457e-31   2.033e-31   -30.610   -30.692    -0.082     (0)  
S(6)          2.533e-02
   HSO4-           1.563e-02   1.294e-02    -1.806    -1.888    -0.082     (0)  
   SO4-2           9.694e-03   4.437e-03    -2.014    -2.353    -0.339     (0)  
   NH4SO4-         5.279e-07   4.390e-07    -6.277    -6.358    -0.080     (0)  
   FeSO4           6.563e-23   6.631e-23   -22.183   -22.178     0.004     (0)  
   FeSO4+          3.613e-31   3.005e-31   -30.442   -30.522    -0.080     (0)  
   Fe(SO4)2-       5.095e-32   4.216e-32   -31.293   -31.375    -0.082     (0)  

------------------------------Saturation indices-------------------------------

  Phase               SI** log IAP   log K(298 K,   1 atm)

  Fe2(SO4)3       -74.82    -71.24    3.58  Fe2(SO4)3
  Fe3(OH)8        -94.31    -74.08   20.22  Fe3(OH)8
  Ferrihydrite    -32.42    -27.53    4.89  Fe(OH)3
  FeS(ppt)        -23.17    -27.09   -3.92  FeS
  Goethite        -28.02    -27.52    0.50  FeOOH
  Greigite        -56.05   -115.16  -59.11  Fe3S4
  Hematite        -51.04    -55.05   -4.01  Fe2O3
  Jarosite-H      -81.27    -93.37  -12.10  (H3O)Fe3(SO4)2(OH)6
  Lepidocrocite   -28.90    -27.52    1.37  FeOOH
  Mackinawite     -25.00    -20.15    4.85  FeS
  Maghemite       -61.43    -55.05    6.39  Fe2O3
  Magnetite       -77.82    -74.08    3.74  Fe3O4
  Melanterite     -21.97    -24.44   -2.47  FeSO4:7H2O
  N2(g)            -7.83    -11.02   -3.19  N2
  NO2(g)          -82.41    -73.43    8.99  NO2
  O2(g)           -64.96     18.16   83.12  O2
  pe_fix           -3.02     -3.02    0.00  e-
  pH_fix           -1.52     -1.52    0.00  H+
  Pyrite            0.00    -60.98  -60.98  FeS2
  Pyrrhotite      -23.89    -20.15    3.74  FeS
  Sulfur            3.13      1.02   -2.11  S

**For a gas, SI = log10(fugacity). Fugacity = pressure * phi / 1 atm.
  For ideal gases, phi = 1.

Reaction step 110.

Using solution 1.	PURE WATER
Using pure phase assemblage 1.	
Using reaction 1.	

Reaction 1.	

	  1.000e-02 moles of the following reaction have been added:

	                 Relative
	Reactant            moles

	Fe1S3                1.00000

	                 Relative
	Element             moles
	Fe                   1.00000
	S                    3.00000

-------------------------------Phase assemblage--------------------------------

                                                      Moles in assemblage
Phase               SI  log IAP  log K(T, P)   Initial       Final       Delta

Greigite         48.93    16.15    -32.77    0.000e+00           0   0.000e+00
Mackinawite     -25.05   -20.20      4.85    0.000e+00           0   0.000e+00
Pyrite           33.49    11.05    -22.44    1.011e-01   1.111e-01   1.000e-02
Pyrrhotite      -23.94   -20.20      3.74    0.000e+00           0   0.000e+00

-----------------------------Solution composition------------------------------

	Elements           Molality       Moles

	Fe                2.277e-22   2.272e-22
	N                 1.002e-05   1.000e-05
	S                 1.113e-01   1.111e-01

----------------------------Description of solution----------------------------

                                       pH  =   1.487      Charge balance
                                       pe  =   3.058      Adjusted to redox equilibrium
                        Activity of water  =   0.997
                 Ionic strength (mol/kgw)  =   4.834e-02
                       Mass of water (kg)  =   9.980e-01
                 Total alkalinity (eq/kg)  =  -5.566e-02
                         Temperature (°C)  =  25.00
                  Electrical balance (eq)  =   1.448e-11
 Percent error, 100*(Cat-|An|)/(Cat+|An|)  =   0.00
                               Iterations  =   8
                                  Total H  = 1.110124e+02
                                  Total O  = 5.550622e+01

----------------------------Distribution of species----------------------------

                                               Log       Log       Log    mole V
   Species          Molality    Activity  Molality  Activity     Gamma    cm³/mol

   H+              3.808e-02   3.256e-02    -1.419    -1.487    -0.068      0.00
   OH-             3.782e-13   3.077e-13   -12.422   -12.512    -0.090     (0)  
   H2O             5.551e+01   9.975e-01     1.744    -0.001     0.000     18.07
Fe(2)         2.277e-22
   Fe+2            1.636e-22   7.958e-23   -21.786   -22.099    -0.313     (0)  
   FeSO4           6.409e-23   6.481e-23   -22.193   -22.188     0.005     (0)  
   Fe(HS)2         6.168e-27   6.237e-27   -26.210   -26.205     0.005     (0)  
   FeOH+           9.318e-31   7.708e-31   -30.031   -30.113    -0.082     (0)  
   Fe(HS)3-        2.447e-31   2.014e-31   -30.611   -30.696    -0.085     (0)  
   Fe(OH)2         1.987e-40   2.010e-40   -39.702   -39.697     0.005     (0)  
   Fe(OH)3-        0.000e+00   0.000e+00   -48.558   -48.641    -0.082     (0)  
Fe(3)         4.843e-31
   FeSO4+          3.895e-31   3.222e-31   -30.410   -30.492    -0.082     (0)  
   Fe(SO4)2-       5.669e-32   4.666e-32   -31.247   -31.331    -0.085     (0)  
   Fe+3            3.459e-32   8.458e-33   -31.461   -32.073    -0.612     (0)  
   FeOH+2          3.572e-33   1.673e-33   -32.447   -32.777    -0.330     (0)  
   Fe(OH)2+        2.043e-35   1.697e-35   -34.690   -34.770    -0.081     (0)  
   Fe(OH)3         0.000e+00   0.000e+00   -41.219   -41.214     0.005     (0)  
   Fe(OH)4-        0.000e+00   0.000e+00   -47.647   -47.728    -0.081     (0)  
   Fe2(OH)2+4      0.000e+00   0.000e+00   -62.771   -64.123    -1.352     (0)  
   Fe3(OH)4+5      0.000e+00   0.000e+00   -94.460   -96.574    -2.113     (0)  
H(0)          1.134e-12
   H2              5.671e-13   5.735e-13   -12.246   -12.241     0.005     (0)  
N(-3)         1.002e-05
   NH4+            9.477e-06   7.615e-06    -5.023    -5.118    -0.095     (0)  
   NH4SO4-         5.431e-07   4.493e-07    -6.265    -6.347    -0.082     (0)  
   NH3             1.318e-13   1.333e-13   -12.880   -12.875     0.005     (0)  
N(0)          1.716e-11
   N2              8.580e-12   8.676e-12   -11.067   -11.062     0.005     (0)  
N(3)          0.000e+00
   NO2-            0.000e+00   0.000e+00   -65.294   -65.379    -0.085     (0)  
N(5)          0.000e+00
   NO3-            0.000e+00   0.000e+00   -84.766   -84.858    -0.092     (0)  
O(0)          0.000e+00
   O2              0.000e+00   0.000e+00   -67.904   -67.899     0.005     (0)  
S(-2)         8.350e-02
   H2S             8.350e-02   8.443e-02    -1.078    -1.073     0.005     (0)  
   HS-             3.644e-07   2.965e-07    -6.438    -6.528    -0.090     (0)  
   S5-2            5.041e-15   2.314e-15   -14.298   -14.636    -0.338     (0)  
   S4-2            2.941e-15   1.350e-15   -14.532   -14.870    -0.338     (0)  
   S6-2            2.609e-15   1.198e-15   -14.584   -14.922    -0.338     (0)  
   S-2             2.349e-18   1.100e-18   -17.629   -17.959    -0.330     (0)  
   S3-2            1.036e-18   4.757e-19   -17.985   -18.323    -0.338     (0)  
   S2-2            5.881e-20   2.700e-20   -19.231   -19.569    -0.338     (0)  
   Fe(HS)2         6.168e-27   6.237e-27   -26.210   -26.205     0.005     (0)  
   Fe(HS)3-        2.447e-31   2.014e-31   -30.611   -30.696    -0.085     (0)  
S(6)          2.784e-02
   HSO4-           1.759e-02   1.447e-02    -1.755    -1.839    -0.085     (0)  
   SO4-2           1.025e-02   4.580e-03    -1.989    -2.339    -0.350     (0)  
   NH4SO4-         5.431e-07   4.493e-07    -6.265    -6.347    -0.082     (0)  
   FeSO4           6.409e-23   6.481e-23   -22.193   -22.188     0.005     (0)  
   FeSO4+          3.895e-31   3.222e-31   -30.410   -30.492    -0.082     (0)  
   Fe(SO4)2-       5.669e-32   4.666e-32   -31.247   -31.331    -0.085     (0)  

------------------------------Saturation indices-------------------------------

  Phase               SI** log IAP   log K(298 K,   1 atm)

  Fe2(SO4)3       -74.74    -71.16    3.58  Fe2(SO4)3
  Fe3(OH)8        -94.58    -74.36   20.22  Fe3(OH)8
  Ferrihydrite    -32.51    -27.61    4.89  Fe(OH)3
  FeS(ppt)        -23.22    -27.14   -3.92  FeS
  Goethite        -28.11    -27.61    0.50  FeOOH
  Greigite        -56.15   -115.26  -59.11  Fe3S4
  Hematite        -51.22    -55.23   -4.01  Fe2O3
  Jarosite-H      -81.37    -93.47  -12.10  (H3O)Fe3(SO4)2(OH)6
  Lepidocrocite   -28.98    -27.61    1.37  FeOOH
  Mackinawite     -25.05    -20.20    4.85  FeS
  Maghemite       -61.61    -55.23    6.39  Fe2O3
  Magnetite       -78.09    -74.35    3.74  Fe3O4
  Melanterite     -21.98    -24.45   -2.47  FeSO4:7H2O
  N2(g)            -7.88    -11.06   -3.19  N2
  NO2(g)          -82.42    -73.43    8.99  NO2
  O2(g)           -64.94     18.18   83.12  O2
  pe_fix           -3.06     -3.06    0.00  e-
  pH_fix           -1.49     -1.49    0.00  H+
  Pyrite           -0.00    -60.98  -60.98  FeS2
  Pyrrhotite      -23.94    -20.20    3.74  FeS
  Sulfur            3.19      1.08   -2.11  S

**For a gas, SI = log10(fugacity). Fugacity = pressure * phi / 1 atm.
  For ideal gases, phi = 1.

------------------
End of simulation.
------------------

------------------------------------
Reading input data for simulation 9.
------------------------------------

-------------------------------
End of Run after 2.223 Seconds.
-------------------------------

