   Input file: C:\Users\jt2020\OneDrive - Imperial College London\Data\Thermodynamics\Thermodynamics\Phreeq\Reaction Progress\All models with pyrrhotite\Nitrate\Standard models\Nitrate Reaction progress unbuffered Low N.pqi
  Output file: C:\Users\jt2020\OneDrive - Imperial College London\Data\Thermodynamics\Thermodynamics\Phreeq\Reaction Progress\All models with pyrrhotite\Nitrate\Standard models\Nitrate Reaction progress unbuffered Low N.pqo
Database file: C:\Users\jt2020\OneDrive - Imperial College London\Data\Thermodynamics\Thermodynamics\Phreeq\Reaction Progress\All models with pyrrhotite\Database\llnlpyrrminteqNO2.dat

------------------
Reading data base.
------------------

	SOLUTION_MASTER_SPECIES
	SOLUTION_SPECIES
	SOLUTION_SPECIES
	PHASES
	SURFACE_MASTER_SPECIES
	SURFACE_SPECIES
	END
------------------------------------
Reading input data for simulation 1.
------------------------------------

	DATABASE C:\Users\jt2020\OneDrive - Imperial College London\Data\Thermodynamics\Thermodynamics\Phreeq\Reaction Progress\All models with pyrrhotite\Database\llnlpyrrminteqNO2.dat
	TITLE Fe dom acidic
	SOLUTION 1  PURE WATER
	            pH    6 charge
	          temp   25.0
	           pe     3
	            N     0.000000001
	PHASES
	       pH_fix
	                H + = H +
	                log_k = 0.0
	       pe_fix
	                e- = e-
	                log_k 0.0
	       N2(g)
	             N2 = N2
	             log_k       -3.1864
	       NO2(g)
	                NO2 = 0.5N2 + O2
	                log_k   8.9857
	                delta_h -7.91421  kcal
	        Mackinawite
	                FeS + 2H+ = Fe+2 + H2S
	                log_k     4.850
	                delta_h        -8.901 kcal
	        Pyrrhotite
	                FeS + 2H+ = Fe+2 + H2S
	                log_k     3.74177
	                delta_h        -7.977 kcal
	        Greigite
	                Fe3S4 + 2NO2(g) + Fe+2 + 2H2O = 4Mackinawite(s) + 2NO3- + 4H+
	                log_k   -32.773
	                delta_h  59.257    kcal
	        Pyrite
	                FeS2 + 0.5Fe+2 + NO2(g) + H2O = 0.5Greigite(s) + NO3- + 2H+
	                log_k          -22.44229642
	                delta_h        11.59814325    kcal
	        NaNO3
	                NaNO3 = Na+ + NO3-
	                log_K -20
	        NaCl
	                NaCl = Cl- + Na+
	                log_k     -20
	END
-----
TITLE
-----

 Fe dom acidic

-------------------------------------------
Beginning of initial solution calculations.
-------------------------------------------

Initial solution 1.	PURE WATER

-----------------------------Solution composition------------------------------

	Elements           Molality       Moles

	N                 1.000e-12   1.000e-12

----------------------------Description of solution----------------------------

                                       pH  =   6.999      Charge balance
                                       pe  =   3.000    
                        Activity of water  =   1.000
                 Ionic strength (mol/kgw)  =   1.003e-07
                       Mass of water (kg)  =   1.000e+00
                 Total alkalinity (eq/kg)  =   1.985e-22
                         Temperature (°C)  =  25.00
                  Electrical balance (eq)  =  -1.985e-22
 Percent error, 100*(Cat-|An|)/(Cat+|An|)  =  -0.00
                               Iterations  =   6
                                  Total H  = 1.110124e+02
                                  Total O  = 5.550622e+01

----------------------------Distribution of species----------------------------

                                               Log       Log       Log    mole V
   Species          Molality    Activity  Molality  Activity     Gamma    cm³/mol

   OH-             1.003e-07   1.002e-07    -6.999    -6.999    -0.000     (0)  
   H+              1.003e-07   1.002e-07    -6.999    -6.999    -0.000      0.00
   H2O             5.551e+01   1.000e+00     1.744    -0.000     0.000     18.07
H(0)          1.422e-23
   H2              7.112e-24   7.112e-24   -23.148   -23.148     0.000     (0)  
N(-3)         2.472e-28
   NH4+            2.458e-28   2.457e-28   -27.609   -27.610    -0.000     (0)  
   NH3             1.397e-30   1.397e-30   -29.855   -29.855     0.000     (0)  
N(0)          1.000e-12
   N2              5.000e-13   5.000e-13   -12.301   -12.301     0.000     (0)  
N(3)          0.000e+00
   NO2-            0.000e+00   0.000e+00   -44.124   -44.125    -0.000     (0)  
N(5)          0.000e+00
   NO3-            0.000e+00   0.000e+00   -52.696   -52.697    -0.000     (0)  
O(0)          0.000e+00
   O2              0.000e+00   0.000e+00   -46.084   -46.084     0.000     (0)  

------------------------------Saturation indices-------------------------------

  Phase               SI** log IAP   log K(298 K,   1 atm)

  N2(g)            -9.11    -12.30   -3.19  N2
  NO2(g)          -61.22    -52.23    8.99  NO2
  O2(g)           -43.12     40.00   83.12  O2
  pe_fix           -3.00     -3.00    0.00  e-
  pH_fix           -7.00     -7.00    0.00  H+

**For a gas, SI = log10(fugacity). Fugacity = pressure * phi / 1 atm.
  For ideal gases, phi = 1.

------------------
End of simulation.
------------------

------------------------------------
Reading input data for simulation 2.
------------------------------------

	INCREMENTAL_REACTIONS
	REACTION
	Fe3S1 1
	10*1e-12 10*1e-11 10*1e-10 10*1e-9 10*1e-8 10*1e-7 10*1e-6 10*1e-5 10*1e-4  10*1e-3  10*1e-2 mol
	USE solution 1
	EQUILIBRIUM_PHASES 1
	        Mackinawite     0.0     0.0
	        Greigite        0.0     0.0
	        Pyrite          0.0     0.0
	        Pyrrhotite      0.0     0.0
	USER_GRAPH 1 Simulation 6
	    -headings               Pyrite Greigite Mackinawite
	    -axis_titles            "Fe and S added, Log moles" "Mineral, moles"
	    -chart_title            "Pyrite pathway in an iron dominant system with Nitrate"
	    -initial_solutions      false
	    -connect_simulations    false
	    -axis_scale y_axis      auto auto auto auto Log
	    -axis_scale sy_axis	    auto auto auto auto Log
	    -plot_concentration_vs  x
	  -start
	 5 PUT(GET(1) + RXN, 1)
	  20 PLOT_XY log10(GET(1)), EQUI("Pyrite") color = Green, line_w = 0,   	symbol = Plus, symbol_size = 5, y_axis = 2
	  30 PLOT_XY log10(GET(1)), EQUI("Greigite") color = Blue, line_w = 0,   	symbol = Plus, symbol_size = 5, y_axis = 2
	  40 PLOT_XY log10(GET(1)), EQUI("Mackinawite") color = Cyan, line_w = 0,   	symbol = Plus, symbol_size = 5, y_axis = 2
	  50 PLOT_XY log10(GET(1)), EQUI("Pyrrhotite") color = Red, line_w = 0,   	symbol = Plus, symbol_size = 5, y_axis = 2
	  -end
	    -active                 true
	SELECTED_OUTPUT
	    file                 Nitrate Fe dominated 180mV pH 6 unbuffered Low N.csv
	    saturation_indices   Mackinawite  Greigite  Pyrite Pyrrhotite
	    reaction             
	    totals               Fe S
	    equilibrium_phases   Mackinawite  Greigite  Pyrite Pyrrhotite
	END
-----------------------------------------
Beginning of batch-reaction calculations.
-----------------------------------------

Reaction step 1.

Using solution 1.	PURE WATER
Using pure phase assemblage 1.	
Using reaction 1.	

Reaction 1.	

	  1.000e-12 moles of the following reaction have been added:

	                 Relative
	Reactant            moles

	Fe3S1                1.00000

	                 Relative
	Element             moles
	Fe                   3.00000
	S                    1.00000

-------------------------------Phase assemblage--------------------------------

                                                      Moles in assemblage
Phase               SI  log IAP  log K(T, P)   Initial       Final       Delta

Greigite         16.30   -16.47    -32.77    0.000e+00           0   0.000e+00
Mackinawite     -20.56   -15.71      4.85    0.000e+00           0   0.000e+00
Pyrite           28.20     5.76    -22.44    0.000e+00           0   0.000e+00
Pyrrhotite      -19.45   -15.71      3.74    0.000e+00           0   0.000e+00

-----------------------------Solution composition------------------------------

	Elements           Molality       Moles

	Fe                3.000e-12   3.000e-12
	N                 1.000e-12   1.000e-12
	S                 1.000e-12   1.000e-12

----------------------------Description of solution----------------------------

                                       pH  =   6.999      Charge balance
                                       pe  =  -2.901      Adjusted to redox equilibrium
                        Activity of water  =   1.000
                 Ionic strength (mol/kgw)  =   1.003e-07
                       Mass of water (kg)  =   1.000e+00
                 Total alkalinity (eq/kg)  =   5.000e-12
                         Temperature (°C)  =  25.00
                  Electrical balance (eq)  =  -2.613e-22
 Percent error, 100*(Cat-|An|)/(Cat+|An|)  =  -0.00
                               Iterations  =  15
                                  Total H  = 1.110124e+02
                                  Total O  = 5.550622e+01

----------------------------Distribution of species----------------------------

                                               Log       Log       Log    mole V
   Species          Molality    Activity  Molality  Activity     Gamma    cm³/mol

   OH-             1.003e-07   1.002e-07    -6.999    -6.999    -0.000     (0)  
   H+              1.003e-07   1.002e-07    -6.999    -6.999    -0.000      0.00
   H2O             5.551e+01   1.000e+00     1.744    -0.000     0.000     18.07
Fe(2)         3.000e-12
   Fe+2            2.991e-12   2.986e-12   -11.524   -11.525    -0.001     (0)  
   FeOH+           9.425e-15   9.421e-15   -14.026   -14.026    -0.000     (0)  
   Fe(OH)2         8.001e-19   8.001e-19   -18.097   -18.097     0.000     (0)  
   FeSO4           5.302e-22   5.302e-22   -21.276   -21.276     0.000     (0)  
   Fe(OH)3-        2.967e-22   2.966e-22   -21.528   -21.528    -0.000     (0)  
   Fe(HS)2         1.503e-39   1.503e-39   -38.823   -38.823     0.000     (0)  
   Fe(HS)3-        0.000e+00   0.000e+00   -54.910   -54.910    -0.000     (0)  
Fe(3)         8.377e-20
   Fe(OH)2+        7.419e-20   7.416e-20   -19.130   -19.130    -0.000     (0)  
   Fe(OH)3         8.693e-21   8.693e-21   -20.061   -20.061     0.000     (0)  
   Fe(OH)4-        8.677e-22   8.673e-22   -21.062   -21.062    -0.000     (0)  
   FeOH+2          2.248e-23   2.245e-23   -22.648   -22.649    -0.001     (0)  
   Fe+3            3.496e-28   3.485e-28   -27.456   -27.458    -0.001     (0)  
   FeSO4+          2.895e-36   2.894e-36   -35.538   -35.539    -0.000     (0)  
   Fe2(OH)2+4      0.000e+00   0.000e+00   -43.865   -43.868    -0.003     (0)  
   Fe(SO4)2-       0.000e+00   0.000e+00   -46.039   -46.039    -0.000     (0)  
   Fe3(OH)4+5      0.000e+00   0.000e+00   -60.673   -60.678    -0.004     (0)  
H(0)          9.014e-12
   H2              4.507e-12   4.507e-12   -11.346   -11.346     0.000     (0)  
N(-3)         9.999e-13
   NH4+            9.943e-13   9.939e-13   -12.002   -12.003    -0.000     (0)  
   NH3             5.651e-15   5.651e-15   -14.248   -14.248     0.000     (0)  
   NH4SO4-         1.279e-23   1.278e-23   -22.893   -22.893    -0.000     (0)  
N(0)          6.427e-17
   N2              3.214e-17   3.214e-17   -16.493   -16.493     0.000     (0)  
N(3)          0.000e+00
   NO2-            0.000e+00   0.000e+00   -63.923   -63.923    -0.000     (0)  
N(5)          0.000e+00
   NO3-            0.000e+00   0.000e+00   -84.297   -84.297    -0.000     (0)  
O(0)          0.000e+00
   O2              0.000e+00   0.000e+00   -69.688   -69.688     0.000     (0)  
S(-2)         1.430e-18
   HS-             7.518e-19   7.516e-19   -18.124   -18.124    -0.000     (0)  
   H2S             6.586e-19   6.586e-19   -18.181   -18.181     0.000     (0)  
   S5-2            1.908e-21   1.905e-21   -20.719   -20.720    -0.001     (0)  
   S4-2            1.113e-21   1.112e-21   -20.953   -20.954    -0.001     (0)  
   S6-2            9.877e-22   9.862e-22   -21.005   -21.006    -0.001     (0)  
   S-2             9.070e-25   9.057e-25   -24.042   -24.043    -0.001     (0)  
   S3-2            3.923e-25   3.917e-25   -24.406   -24.407    -0.001     (0)  
   S2-2            2.226e-26   2.223e-26   -25.652   -25.653    -0.001     (0)  
   Fe(HS)2         1.503e-39   1.503e-39   -38.823   -38.823     0.000     (0)  
   Fe(HS)3-        0.000e+00   0.000e+00   -54.910   -54.910    -0.000     (0)  
S(6)          1.000e-12
   SO4-2           1.000e-12   9.985e-13   -12.000   -12.001    -0.001     (0)  
   HSO4-           9.715e-18   9.711e-18   -17.013   -17.013    -0.000     (0)  
   FeSO4           5.302e-22   5.302e-22   -21.276   -21.276     0.000     (0)  
   NH4SO4-         1.279e-23   1.278e-23   -22.893   -22.893    -0.000     (0)  
   FeSO4+          2.895e-36   2.894e-36   -35.538   -35.539    -0.000     (0)  
   Fe(SO4)2-       0.000e+00   0.000e+00   -46.039   -46.039    -0.000     (0)  

------------------------------Saturation indices-------------------------------

  Phase               SI** log IAP   log K(298 K,   1 atm)

  Fe2(SO4)3       -94.50    -90.92    3.58  Fe2(SO4)3
  Fe3(OH)8        -30.67    -10.45   20.22  Fe3(OH)8
  Ferrihydrite    -11.35     -6.46    4.89  Fe(OH)3
  FeS(ppt)        -18.73    -22.65   -3.92  FeS
  Goethite         -6.96     -6.46    0.50  FeOOH
  Greigite        -60.69   -119.80  -59.11  Fe3S4
  Hematite         -8.91    -12.92   -4.01  Fe2O3
  Jarosite-H      -59.28    -71.38  -12.10  (H3O)Fe3(SO4)2(OH)6
  Lepidocrocite    -7.83     -6.46    1.37  FeOOH
  Mackinawite     -20.56    -15.71    4.85  FeS
  Maghemite       -19.31    -12.92    6.39  Fe2O3
  Magnetite       -14.19    -10.45    3.74  Fe3O4
  Melanterite     -21.06    -23.53   -2.47  FeSO4:7H2O
  N2(g)           -13.31    -16.49   -3.19  N2
  NO2(g)          -86.92    -77.93    8.99  NO2
  O2(g)           -66.73     16.39   83.12  O2
  pe_fix            2.90      2.90    0.00  e-
  pH_fix           -7.00     -7.00    0.00  H+
  Pyrite          -13.51    -74.50  -60.98  FeS2
  Pyrrhotite      -19.45    -15.71    3.74  FeS
  Sulfur          -14.82    -16.93   -2.11  S

**For a gas, SI = log10(fugacity). Fugacity = pressure * phi / 1 atm.
  For ideal gases, phi = 1.

Reaction step 2.

Using solution 1.	PURE WATER
Using pure phase assemblage 1.	
Using reaction 1.	

Reaction 1.	

	  1.000e-12 moles of the following reaction have been added:

	                 Relative
	Reactant            moles

	Fe3S1                1.00000

	                 Relative
	Element             moles
	Fe                   3.00000
	S                    1.00000

-------------------------------Phase assemblage--------------------------------

                                                      Moles in assemblage
Phase               SI  log IAP  log K(T, P)   Initial       Final       Delta

Greigite         16.00   -16.77    -32.77    0.000e+00           0   0.000e+00
Mackinawite     -18.49   -13.64      4.85    0.000e+00           0   0.000e+00
Pyrite           28.05     5.61    -22.44    0.000e+00           0   0.000e+00
Pyrrhotite      -17.38   -13.64      3.74    0.000e+00           0   0.000e+00

-----------------------------Solution composition------------------------------

	Elements           Molality       Moles

	Fe                6.000e-12   6.000e-12
	N                 1.000e-12   1.000e-12
	S                 2.000e-12   2.000e-12

----------------------------Description of solution----------------------------

                                       pH  =   6.999      Charge balance
                                       pe  =  -3.085      Adjusted to redox equilibrium
                        Activity of water  =   1.000
                 Ionic strength (mol/kgw)  =   1.003e-07
                       Mass of water (kg)  =   1.000e+00
                 Total alkalinity (eq/kg)  =   9.000e-12
                         Temperature (°C)  =  25.00
                  Electrical balance (eq)  =  -1.540e-22
 Percent error, 100*(Cat-|An|)/(Cat+|An|)  =  -0.00
                               Iterations  =   5
                                  Total H  = 1.110124e+02
                                  Total O  = 5.550622e+01

----------------------------Distribution of species----------------------------

                                               Log       Log       Log    mole V
   Species          Molality    Activity  Molality  Activity     Gamma    cm³/mol

   OH-             1.003e-07   1.002e-07    -6.999    -6.999    -0.000     (0)  
   H+              1.003e-07   1.002e-07    -6.999    -6.999    -0.000      0.00
   H2O             5.551e+01   1.000e+00     1.744    -0.000     0.000     18.07
Fe(2)         6.000e-12
   Fe+2            5.981e-12   5.972e-12   -11.223   -11.224    -0.001     (0)  
   FeOH+           1.885e-14   1.884e-14   -13.725   -13.725    -0.000     (0)  
   Fe(OH)2         1.600e-18   1.600e-18   -17.796   -17.796     0.000     (0)  
   FeSO4           2.121e-21   2.121e-21   -20.673   -20.673     0.000     (0)  
   Fe(OH)3-        5.934e-22   5.932e-22   -21.227   -21.227    -0.000     (0)  
   Fe(HS)2         1.049e-35   1.049e-35   -34.979   -34.979     0.000     (0)  
   Fe(HS)3-        0.000e+00   0.000e+00   -49.295   -49.295    -0.000     (0)  
Fe(3)         1.097e-19
   Fe(OH)2+        9.718e-20   9.715e-20   -19.012   -19.013    -0.000     (0)  
   Fe(OH)3         1.139e-20   1.139e-20   -19.944   -19.944     0.000     (0)  
   Fe(OH)4-        1.137e-21   1.136e-21   -20.944   -20.945    -0.000     (0)  
   FeOH+2          2.945e-23   2.940e-23   -22.531   -22.532    -0.001     (0)  
   Fe+3            4.580e-28   4.564e-28   -27.339   -27.341    -0.001     (0)  
   FeSO4+          7.584e-36   7.581e-36   -35.120   -35.120    -0.000     (0)  
   Fe2(OH)2+4      0.000e+00   0.000e+00   -43.631   -43.633    -0.003     (0)  
   Fe(SO4)2-       0.000e+00   0.000e+00   -45.320   -45.320    -0.000     (0)  
   Fe3(OH)4+5      0.000e+00   0.000e+00   -60.322   -60.326    -0.004     (0)  
H(0)          2.101e-11
   H2              1.051e-11   1.051e-11   -10.979   -10.979     0.000     (0)  
N(-3)         1.000e-12
   NH4+            9.943e-13   9.940e-13   -12.002   -12.003    -0.000     (0)  
   NH3             5.652e-15   5.652e-15   -14.248   -14.248     0.000     (0)  
   NH4SO4-         2.558e-23   2.557e-23   -22.592   -22.592    -0.000     (0)  
N(0)          5.075e-18
   N2              2.537e-18   2.537e-18   -17.596   -17.596     0.000     (0)  
N(3)          0.000e+00
   NO2-            0.000e+00   0.000e+00   -65.026   -65.026    -0.000     (0)  
N(5)          0.000e+00
   NO3-            0.000e+00   0.000e+00   -85.767   -85.767    -0.000     (0)  
O(0)          0.000e+00
   O2              0.000e+00   0.000e+00   -70.423   -70.423     0.000     (0)  
S(-2)         8.447e-17
   HS-             4.440e-17   4.438e-17   -16.353   -16.353    -0.000     (0)  
   H2S             3.889e-17   3.889e-17   -16.410   -16.410     0.000     (0)  
   S5-2            1.127e-19   1.125e-19   -18.948   -18.949    -0.001     (0)  
   S4-2            6.575e-20   6.565e-20   -19.182   -19.183    -0.001     (0)  
   S6-2            5.833e-20   5.824e-20   -19.234   -19.235    -0.001     (0)  
   S-2             5.357e-23   5.349e-23   -22.271   -22.272    -0.001     (0)  
   S3-2            2.317e-23   2.313e-23   -22.635   -22.636    -0.001     (0)  
   S2-2            1.315e-24   1.313e-24   -23.881   -23.882    -0.001     (0)  
   Fe(HS)2         1.049e-35   1.049e-35   -34.979   -34.979     0.000     (0)  
   Fe(HS)3-        0.000e+00   0.000e+00   -49.295   -49.295    -0.000     (0)  
S(6)          2.000e-12
   SO4-2           2.000e-12   1.997e-12   -11.699   -11.700    -0.001     (0)  
   HSO4-           1.943e-17   1.942e-17   -16.712   -16.712    -0.000     (0)  
   FeSO4           2.121e-21   2.121e-21   -20.673   -20.673     0.000     (0)  
   NH4SO4-         2.558e-23   2.557e-23   -22.592   -22.592    -0.000     (0)  
   FeSO4+          7.584e-36   7.581e-36   -35.120   -35.120    -0.000     (0)  
   Fe(SO4)2-       0.000e+00   0.000e+00   -45.320   -45.320    -0.000     (0)  

------------------------------Saturation indices-------------------------------

  Phase               SI** log IAP   log K(298 K,   1 atm)

  Fe2(SO4)3       -93.36    -89.78    3.58  Fe2(SO4)3
  Fe3(OH)8        -30.13     -9.91   20.22  Fe3(OH)8
  Ferrihydrite    -11.23     -6.34    4.89  Fe(OH)3
  FeS(ppt)        -16.66    -20.58   -3.92  FeS
  Goethite         -6.84     -6.34    0.50  FeOOH
  Greigite        -53.07   -112.18  -59.11  Fe3S4
  Hematite         -8.68    -12.69   -4.01  Fe2O3
  Jarosite-H      -58.33    -70.43  -12.10  (H3O)Fe3(SO4)2(OH)6
  Lepidocrocite    -7.71     -6.34    1.37  FeOOH
  Mackinawite     -18.49    -13.64    4.85  FeS
  Maghemite       -19.07    -12.69    6.39  Fe2O3
  Magnetite       -13.65     -9.91    3.74  Fe3O4
  Melanterite     -20.45    -22.92   -2.47  FeSO4:7H2O
  N2(g)           -14.41    -17.60   -3.19  N2
  NO2(g)          -88.21    -79.22    8.99  NO2
  O2(g)           -67.46     15.66   83.12  O2
  pe_fix            3.08      3.08    0.00  e-
  pH_fix           -7.00     -7.00    0.00  H+
  Pyrite          -10.04    -71.02  -60.98  FeS2
  Pyrrhotite      -17.38    -13.64    3.74  FeS
  Sulfur          -13.41    -15.52   -2.11  S

**For a gas, SI = log10(fugacity). Fugacity = pressure * phi / 1 atm.
  For ideal gases, phi = 1.

Reaction step 3.

Using solution 1.	PURE WATER
Using pure phase assemblage 1.	
Using reaction 1.	

Reaction 1.	

	  1.000e-12 moles of the following reaction have been added:

	                 Relative
	Reactant            moles

	Fe3S1                1.00000

	                 Relative
	Element             moles
	Fe                   3.00000
	S                    1.00000

-------------------------------Phase assemblage--------------------------------

                                                      Moles in assemblage
Phase               SI  log IAP  log K(T, P)   Initial       Final       Delta

Greigite         15.82   -16.95    -32.77    0.000e+00           0   0.000e+00
Mackinawite     -17.35   -12.50      4.85    0.000e+00           0   0.000e+00
Pyrite           27.97     5.52    -22.44    0.000e+00           0   0.000e+00
Pyrrhotite      -16.24   -12.50      3.74    0.000e+00           0   0.000e+00

-----------------------------Solution composition------------------------------

	Elements           Molality       Moles

	Fe                9.000e-12   9.000e-12
	N                 1.000e-12   1.000e-12
	S                 3.000e-12   3.000e-12

----------------------------Description of solution----------------------------

                                       pH  =   6.999      Charge balance
                                       pe  =  -3.183      Adjusted to redox equilibrium
                        Activity of water  =   1.000
                 Ionic strength (mol/kgw)  =   1.003e-07
                       Mass of water (kg)  =   1.000e+00
                 Total alkalinity (eq/kg)  =   1.300e-11
                         Temperature (°C)  =  25.00
                  Electrical balance (eq)  =   2.054e-22
 Percent error, 100*(Cat-|An|)/(Cat+|An|)  =   0.00
                               Iterations  =   4
                                  Total H  = 1.110124e+02
                                  Total O  = 5.550622e+01

----------------------------Distribution of species----------------------------

                                               Log       Log       Log    mole V
   Species          Molality    Activity  Molality  Activity     Gamma    cm³/mol

   OH-             1.003e-07   1.002e-07    -6.999    -6.999    -0.000     (0)  
   H+              1.003e-07   1.002e-07    -6.999    -6.999    -0.000      0.00
   H2O             5.551e+01   1.000e+00     1.744    -0.000     0.000     18.07
Fe(2)         9.000e-12
   Fe+2            8.972e-12   8.958e-12   -11.047   -11.048    -0.001     (0)  
   FeOH+           2.828e-14   2.827e-14   -13.549   -13.549    -0.000     (0)  
   Fe(OH)2         2.400e-18   2.400e-18   -17.620   -17.620     0.000     (0)  
   FeSO4           4.771e-21   4.771e-21   -20.321   -20.321     0.000     (0)  
   Fe(OH)3-        8.902e-22   8.898e-22   -21.051   -21.051    -0.000     (0)  
   Fe(HS)2         1.311e-33   1.311e-33   -32.882   -32.882     0.000     (0)  
   Fe(HS)3-        0.000e+00   0.000e+00   -46.238   -46.238    -0.000     (0)  
Fe(3)         1.313e-19
   Fe(OH)2+        1.163e-19   1.163e-19   -18.934   -18.935    -0.000     (0)  
   Fe(OH)3         1.363e-20   1.363e-20   -19.866   -19.866     0.000     (0)  
   Fe(OH)4-        1.360e-21   1.360e-21   -20.866   -20.866    -0.000     (0)  
   FeOH+2          3.524e-23   3.519e-23   -22.453   -22.454    -0.001     (0)  
   Fe+3            5.481e-28   5.463e-28   -27.261   -27.263    -0.001     (0)  
   FeSO4+          1.361e-35   1.361e-35   -34.866   -34.866    -0.000     (0)  
   Fe2(OH)2+4      0.000e+00   0.000e+00   -43.475   -43.477    -0.003     (0)  
   Fe(SO4)2-       0.000e+00   0.000e+00   -44.890   -44.890    -0.000     (0)  
   Fe3(OH)4+5      0.000e+00   0.000e+00   -60.088   -60.092    -0.004     (0)  
H(0)          3.301e-11
   H2              1.650e-11   1.650e-11   -10.782   -10.782     0.000     (0)  
N(-3)         1.000e-12
   NH4+            9.943e-13   9.940e-13   -12.002   -12.003    -0.000     (0)  
   NH3             5.652e-15   5.652e-15   -14.248   -14.248     0.000     (0)  
   NH4SO4-         3.836e-23   3.835e-23   -22.416   -22.416    -0.000     (0)  
N(0)          1.309e-18
   N2              6.547e-19   6.547e-19   -18.184   -18.184     0.000     (0)  
N(3)          0.000e+00
   NO2-            0.000e+00   0.000e+00   -65.614   -65.614    -0.000     (0)  
N(5)          0.000e+00
   NO3-            0.000e+00   0.000e+00   -86.552   -86.552    -0.000     (0)  
O(0)          0.000e+00
   O2              0.000e+00   0.000e+00   -70.815   -70.815     0.000     (0)  
S(-2)         7.712e-16
   HS-             4.054e-16   4.052e-16   -15.392   -15.392    -0.000     (0)  
   H2S             3.551e-16   3.551e-16   -15.450   -15.450     0.000     (0)  
   S5-2            1.029e-18   1.027e-18   -17.988   -17.988    -0.001     (0)  
   S4-2            6.003e-19   5.994e-19   -18.222   -18.222    -0.001     (0)  
   S6-2            5.326e-19   5.318e-19   -18.274   -18.274    -0.001     (0)  
   S-2             4.891e-22   4.883e-22   -21.311   -21.311    -0.001     (0)  
   S3-2            2.115e-22   2.112e-22   -21.675   -21.675    -0.001     (0)  
   S2-2            1.201e-23   1.199e-23   -22.921   -22.921    -0.001     (0)  
   Fe(HS)2         1.311e-33   1.311e-33   -32.882   -32.882     0.000     (0)  
   Fe(HS)3-        0.000e+00   0.000e+00   -46.238   -46.238    -0.000     (0)  
S(6)          2.999e-12
   SO4-2           2.999e-12   2.995e-12   -11.523   -11.524    -0.001     (0)  
   HSO4-           2.914e-17   2.913e-17   -16.536   -16.536    -0.000     (0)  
   FeSO4           4.771e-21   4.771e-21   -20.321   -20.321     0.000     (0)  
   NH4SO4-         3.836e-23   3.835e-23   -22.416   -22.416    -0.000     (0)  
   FeSO4+          1.361e-35   1.361e-35   -34.866   -34.866    -0.000     (0)  
   Fe(SO4)2-       0.000e+00   0.000e+00   -44.890   -44.890    -0.000     (0)  

------------------------------Saturation indices-------------------------------

  Phase               SI** log IAP   log K(298 K,   1 atm)

  Fe2(SO4)3       -92.68    -89.10    3.58  Fe2(SO4)3
  Fe3(OH)8        -29.80     -9.58   20.22  Fe3(OH)8
  Ferrihydrite    -11.16     -6.27    4.89  Fe(OH)3
  FeS(ppt)        -15.53    -19.44   -3.92  FeS
  Goethite         -6.77     -6.27    0.50  FeOOH
  Greigite        -48.89   -108.00  -59.11  Fe3S4
  Hematite         -8.52    -12.53   -4.01  Fe2O3
  Jarosite-H      -57.74    -69.84  -12.10  (H3O)Fe3(SO4)2(OH)6
  Lepidocrocite    -7.64     -6.27    1.37  FeOOH
  Mackinawite     -17.35    -12.50    4.85  FeS
  Maghemite       -18.92    -12.53    6.39  Fe2O3
  Magnetite       -13.32     -9.58    3.74  Fe3O4
  Melanterite     -20.10    -22.57   -2.47  FeSO4:7H2O
  N2(g)           -15.00    -18.18   -3.19  N2
  NO2(g)          -88.89    -79.91    8.99  NO2
  O2(g)           -67.86     15.26   83.12  O2
  pe_fix            3.18      3.18    0.00  e-
  pH_fix           -7.00     -7.00    0.00  H+
  Pyrite           -8.14    -69.12  -60.98  FeS2
  Pyrrhotite      -16.24    -12.50    3.74  FeS
  Sulfur          -12.65    -14.76   -2.11  S

**For a gas, SI = log10(fugacity). Fugacity = pressure * phi / 1 atm.
  For ideal gases, phi = 1.

Reaction step 4.

Using solution 1.	PURE WATER
Using pure phase assemblage 1.	
Using reaction 1.	

Reaction 1.	

	  1.000e-12 moles of the following reaction have been added:

	                 Relative
	Reactant            moles

	Fe3S1                1.00000

	                 Relative
	Element             moles
	Fe                   3.00000
	S                    1.00000

-------------------------------Phase assemblage--------------------------------

                                                      Moles in assemblage
Phase               SI  log IAP  log K(T, P)   Initial       Final       Delta

Greigite         15.70   -17.07    -32.77    0.000e+00           0   0.000e+00
Mackinawite     -16.56   -11.71      4.85    0.000e+00           0   0.000e+00
Pyrite           27.90     5.46    -22.44    0.000e+00           0   0.000e+00
Pyrrhotite      -15.45   -11.71      3.74    0.000e+00           0   0.000e+00

-----------------------------Solution composition------------------------------

	Elements           Molality       Moles

	Fe                1.200e-11   1.200e-11
	N                 1.000e-12   1.000e-12
	S                 4.000e-12   4.000e-12

----------------------------Description of solution----------------------------

                                       pH  =   6.999      Charge balance
                                       pe  =  -3.250      Adjusted to redox equilibrium
                        Activity of water  =   1.000
                 Ionic strength (mol/kgw)  =   1.003e-07
                       Mass of water (kg)  =   1.000e+00
                 Total alkalinity (eq/kg)  =   1.701e-11
                         Temperature (°C)  =  25.00
                  Electrical balance (eq)  =   3.480e-22
 Percent error, 100*(Cat-|An|)/(Cat+|An|)  =   0.00
                               Iterations  =   4
                                  Total H  = 1.110124e+02
                                  Total O  = 5.550622e+01

----------------------------Distribution of species----------------------------

                                               Log       Log       Log    mole V
   Species          Molality    Activity  Molality  Activity     Gamma    cm³/mol

   OH-             1.003e-07   1.002e-07    -6.999    -6.999    -0.000     (0)  
   H+              1.003e-07   1.002e-07    -6.999    -6.999    -0.000      0.00
   H2O             5.551e+01   1.000e+00     1.744    -0.000     0.000     18.07
Fe(2)         1.200e-11
   Fe+2            1.196e-11   1.194e-11   -10.922   -10.923    -0.001     (0)  
   FeOH+           3.770e-14   3.769e-14   -13.424   -13.424    -0.000     (0)  
   Fe(OH)2         3.201e-18   3.201e-18   -17.495   -17.495     0.000     (0)  
   FeSO4           8.476e-21   8.476e-21   -20.072   -20.072     0.000     (0)  
   Fe(OH)3-        1.187e-21   1.187e-21   -20.926   -20.926    -0.000     (0)  
   Fe(HS)2         3.685e-32   3.685e-32   -31.434   -31.434     0.000     (0)  
   Fe(HS)3-        0.000e+00   0.000e+00   -44.127   -44.127    -0.000     (0)  
Fe(3)         1.500e-19
   Fe(OH)2+        1.329e-19   1.328e-19   -18.877   -18.877    -0.000     (0)  
   Fe(OH)3         1.557e-20   1.557e-20   -19.808   -19.808     0.000     (0)  
   Fe(OH)4-        1.554e-21   1.554e-21   -20.809   -20.809    -0.000     (0)  
   FeOH+2          4.026e-23   4.020e-23   -22.395   -22.396    -0.001     (0)  
   Fe+3            6.261e-28   6.240e-28   -27.203   -27.205    -0.001     (0)  
   FeSO4+          2.072e-35   2.071e-35   -34.684   -34.684    -0.000     (0)  
   Fe2(OH)2+4      0.000e+00   0.000e+00   -43.359   -43.362    -0.003     (0)  
   Fe(SO4)2-       0.000e+00   0.000e+00   -44.583   -44.583    -0.000     (0)  
   Fe3(OH)4+5      0.000e+00   0.000e+00   -59.914   -59.918    -0.004     (0)  
H(0)          4.497e-11
   H2              2.249e-11   2.249e-11   -10.648   -10.648     0.000     (0)  
N(-3)         1.000e-12
   NH4+            9.943e-13   9.940e-13   -12.002   -12.003    -0.000     (0)  
   NH3             5.652e-15   5.652e-15   -14.248   -14.248     0.000     (0)  
   NH4SO4-         5.112e-23   5.110e-23   -22.291   -22.292    -0.000     (0)  
N(0)          5.178e-19
   N2              2.589e-19   2.589e-19   -18.587   -18.587     0.000     (0)  
N(3)          0.000e+00
   NO2-            0.000e+00   0.000e+00   -66.017   -66.017    -0.000     (0)  
N(5)          0.000e+00
   NO3-            0.000e+00   0.000e+00   -87.089   -87.089    -0.000     (0)  
O(0)          0.000e+00
   O2              0.000e+00   0.000e+00   -71.084   -71.084     0.000     (0)  
S(-2)         3.541e-15
   HS-             1.861e-15   1.860e-15   -14.730   -14.730    -0.000     (0)  
   H2S             1.630e-15   1.630e-15   -14.788   -14.788     0.000     (0)  
   S5-2            4.724e-18   4.717e-18   -17.326   -17.326    -0.001     (0)  
   S4-2            2.756e-18   2.752e-18   -17.560   -17.560    -0.001     (0)  
   S6-2            2.445e-18   2.442e-18   -17.612   -17.612    -0.001     (0)  
   S-2             2.245e-21   2.242e-21   -20.649   -20.649    -0.001     (0)  
   S3-2            9.712e-22   9.698e-22   -21.013   -21.013    -0.001     (0)  
   S2-2            5.512e-23   5.504e-23   -22.259   -22.259    -0.001     (0)  
   Fe(HS)2         3.685e-32   3.685e-32   -31.434   -31.434     0.000     (0)  
   Fe(HS)3-        0.000e+00   0.000e+00   -44.127   -44.127    -0.000     (0)  
S(6)          3.996e-12
   SO4-2           3.996e-12   3.990e-12   -11.398   -11.399    -0.001     (0)  
   HSO4-           3.882e-17   3.881e-17   -16.411   -16.411    -0.000     (0)  
   FeSO4           8.476e-21   8.476e-21   -20.072   -20.072     0.000     (0)  
   NH4SO4-         5.112e-23   5.110e-23   -22.291   -22.292    -0.000     (0)  
   FeSO4+          2.072e-35   2.071e-35   -34.684   -34.684    -0.000     (0)  
   Fe(SO4)2-       0.000e+00   0.000e+00   -44.583   -44.583    -0.000     (0)  

------------------------------Saturation indices-------------------------------

  Phase               SI** log IAP   log K(298 K,   1 atm)

  Fe2(SO4)3       -92.19    -88.61    3.58  Fe2(SO4)3
  Fe3(OH)8        -29.56     -9.34   20.22  Fe3(OH)8
  Ferrihydrite    -11.10     -6.21    4.89  Fe(OH)3
  FeS(ppt)        -14.74    -18.65   -3.92  FeS
  Goethite         -6.71     -6.21    0.50  FeOOH
  Greigite        -46.00   -105.11  -59.11  Fe3S4
  Hematite         -8.41    -12.42   -4.01  Fe2O3
  Jarosite-H      -57.32    -69.42  -12.10  (H3O)Fe3(SO4)2(OH)6
  Lepidocrocite    -7.58     -6.21    1.37  FeOOH
  Mackinawite     -16.56    -11.71    4.85  FeS
  Maghemite       -18.80    -12.42    6.39  Fe2O3
  Magnetite       -13.08     -9.34    3.74  Fe3O4
  Melanterite     -19.85    -22.32   -2.47  FeSO4:7H2O
  N2(g)           -15.40    -18.59   -3.19  N2
  NO2(g)          -89.36    -80.38    8.99  NO2
  O2(g)           -68.12     15.00   83.12  O2
  pe_fix            3.25      3.25    0.00  e-
  pH_fix           -7.00     -7.00    0.00  H+
  Pyrite           -6.82    -67.81  -60.98  FeS2
  Pyrrhotite      -15.45    -11.71    3.74  FeS
  Sulfur          -12.12    -14.23   -2.11  S

**For a gas, SI = log10(fugacity). Fugacity = pressure * phi / 1 atm.
  For ideal gases, phi = 1.

Reaction step 5.

Using solution 1.	PURE WATER
Using pure phase assemblage 1.	
Using reaction 1.	

Reaction 1.	

	  1.000e-12 moles of the following reaction have been added:

	                 Relative
	Reactant            moles

	Fe3S1                1.00000

	                 Relative
	Element             moles
	Fe                   3.00000
	S                    1.00000

-------------------------------Phase assemblage--------------------------------

                                                      Moles in assemblage
Phase               SI  log IAP  log K(T, P)   Initial       Final       Delta

Greigite         15.60   -17.17    -32.77    0.000e+00           0   0.000e+00
Mackinawite     -15.96   -11.11      4.85    0.000e+00           0   0.000e+00
Pyrite           27.86     5.41    -22.44    0.000e+00           0   0.000e+00
Pyrrhotite      -14.85   -11.11      3.74    0.000e+00           0   0.000e+00

-----------------------------Solution composition------------------------------

	Elements           Molality       Moles

	Fe                1.500e-11   1.500e-11
	N                 1.000e-12   1.000e-12
	S                 5.000e-12   5.000e-12

----------------------------Description of solution----------------------------

                                       pH  =   6.999      Charge balance
                                       pe  =  -3.301      Adjusted to redox equilibrium
                        Activity of water  =   1.000
                 Ionic strength (mol/kgw)  =   1.003e-07
                       Mass of water (kg)  =   1.000e+00
                 Total alkalinity (eq/kg)  =   2.102e-11
                         Temperature (°C)  =  25.00
                  Electrical balance (eq)  =   1.136e-18
 Percent error, 100*(Cat-|An|)/(Cat+|An|)  =   0.00
                               Iterations  =   3
                                  Total H  = 1.110124e+02
                                  Total O  = 5.550622e+01

----------------------------Distribution of species----------------------------

                                               Log       Log       Log    mole V
   Species          Molality    Activity  Molality  Activity     Gamma    cm³/mol

   OH-             1.003e-07   1.002e-07    -6.999    -6.999    -0.000     (0)  
   H+              1.003e-07   1.002e-07    -6.999    -6.999    -0.000      0.00
   H2O             5.551e+01   1.000e+00     1.744    -0.000     0.000     18.07
Fe(2)         1.500e-11
   Fe+2            1.495e-11   1.493e-11   -10.825   -10.826    -0.001     (0)  
   FeOH+           4.713e-14   4.711e-14   -13.327   -13.327    -0.000     (0)  
   Fe(OH)2         4.001e-18   4.001e-18   -17.398   -17.398     0.000     (0)  
   FeSO4           1.323e-20   1.323e-20   -19.879   -19.879     0.000     (0)  
   Fe(OH)3-        1.484e-21   1.483e-21   -20.829   -20.829    -0.000     (0)  
   Fe(HS)2         4.720e-31   4.720e-31   -30.326   -30.326     0.000     (0)  
   Fe(HS)3-        0.000e+00   0.000e+00   -42.514   -42.514    -0.000     (0)  
Fe(3)         1.667e-19
   Fe(OH)2+        1.476e-19   1.476e-19   -18.831   -18.831    -0.000     (0)  
   Fe(OH)3         1.730e-20   1.730e-20   -19.762   -19.762     0.000     (0)  
   Fe(OH)4-        1.727e-21   1.726e-21   -20.763   -20.763    -0.000     (0)  
   FeOH+2          4.473e-23   4.467e-23   -22.349   -22.350    -0.001     (0)  
   Fe+3            6.957e-28   6.934e-28   -27.158   -27.159    -0.001     (0)  
   FeSO4+          2.874e-35   2.873e-35   -34.542   -34.542    -0.000     (0)  
   Fe2(OH)2+4      0.000e+00   0.000e+00   -43.267   -43.270    -0.003     (0)  
   Fe(SO4)2-       0.000e+00   0.000e+00   -44.344   -44.344    -0.000     (0)  
   Fe3(OH)4+5      0.000e+00   0.000e+00   -59.777   -59.781    -0.004     (0)  
H(0)          5.691e-11
   H2              2.845e-11   2.845e-11   -10.546   -10.546     0.000     (0)  
N(-3)         1.000e-12
   NH4+            9.943e-13   9.940e-13   -12.002   -12.003    -0.000     (0)  
   NH3             5.652e-15   5.652e-15   -14.248   -14.248     0.000     (0)  
   NH4SO4-         6.381e-23   6.378e-23   -22.195   -22.195    -0.000     (0)  
N(0)          2.555e-19
   N2              1.278e-19   1.278e-19   -18.894   -18.894     0.000     (0)  
N(3)          0.000e+00
   NO2-            0.000e+00   0.000e+00   -66.324   -66.324    -0.000     (0)  
N(5)          0.000e+00
   NO3-            0.000e+00   0.000e+00   -87.498   -87.498    -0.000     (0)  
O(0)          0.000e+00
   O2              0.000e+00   0.000e+00   -71.288   -71.288     0.000     (0)  
S(-2)         1.133e-14
   HS-             5.958e-15   5.955e-15   -14.225   -14.225    -0.000     (0)  
   H2S             5.218e-15   5.218e-15   -14.282   -14.282     0.000     (0)  
   S5-2            1.512e-17   1.510e-17   -16.820   -16.821    -0.001     (0)  
   S4-2            8.823e-18   8.810e-18   -17.054   -17.055    -0.001     (0)  
   S6-2            7.827e-18   7.815e-18   -17.106   -17.107    -0.001     (0)  
   S-2             7.188e-21   7.177e-21   -20.143   -20.144    -0.001     (0)  
   S3-2            3.109e-21   3.104e-21   -20.507   -20.508    -0.001     (0)  
   S2-2            1.764e-22   1.762e-22   -21.753   -21.754    -0.001     (0)  
   Fe(HS)2         4.720e-31   4.720e-31   -30.326   -30.326     0.000     (0)  
   Fe(HS)3-        0.000e+00   0.000e+00   -42.514   -42.514    -0.000     (0)  
S(6)          4.989e-12
   SO4-2           4.989e-12   4.981e-12   -11.302   -11.303    -0.001     (0)  
   HSO4-           4.846e-17   4.844e-17   -16.315   -16.315    -0.000     (0)  
   FeSO4           1.323e-20   1.323e-20   -19.879   -19.879     0.000     (0)  
   NH4SO4-         6.381e-23   6.378e-23   -22.195   -22.195    -0.000     (0)  
   FeSO4+          2.874e-35   2.873e-35   -34.542   -34.542    -0.000     (0)  
   Fe(SO4)2-       0.000e+00   0.000e+00   -44.344   -44.344    -0.000     (0)  

------------------------------Saturation indices-------------------------------

  Phase               SI** log IAP   log K(298 K,   1 atm)

  Fe2(SO4)3       -91.81    -88.23    3.58  Fe2(SO4)3
  Fe3(OH)8        -29.37     -9.15   20.22  Fe3(OH)8
  Ferrihydrite    -11.05     -6.16    4.89  Fe(OH)3
  FeS(ppt)        -14.14    -18.05   -3.92  FeS
  Goethite         -6.66     -6.16    0.50  FeOOH
  Greigite        -43.79   -102.90  -59.11  Fe3S4
  Hematite         -8.32    -12.32   -4.01  Fe2O3
  Jarosite-H      -56.99    -69.09  -12.10  (H3O)Fe3(SO4)2(OH)6
  Lepidocrocite    -7.53     -6.16    1.37  FeOOH
  Mackinawite     -15.96    -11.11    4.85  FeS
  Maghemite       -18.71    -12.32    6.39  Fe2O3
  Magnetite       -12.89     -9.15    3.74  Fe3O4
  Melanterite     -19.66    -22.13   -2.47  FeSO4:7H2O
  N2(g)           -15.71    -18.89   -3.19  N2
  NO2(g)          -89.72    -80.74    8.99  NO2
  O2(g)           -68.33     14.79   83.12  O2
  pe_fix            3.30      3.30    0.00  e-
  pH_fix           -7.00     -7.00    0.00  H+
  Pyrite           -5.82    -66.80  -60.98  FeS2
  Pyrrhotite      -14.85    -11.11    3.74  FeS
  Sulfur          -11.72    -13.83   -2.11  S

**For a gas, SI = log10(fugacity). Fugacity = pressure * phi / 1 atm.
  For ideal gases, phi = 1.

Reaction step 6.

Using solution 1.	PURE WATER
Using pure phase assemblage 1.	
Using reaction 1.	

Reaction 1.	

	  1.000e-12 moles of the following reaction have been added:

	                 Relative
	Reactant            moles

	Fe3S1                1.00000

	                 Relative
	Element             moles
	Fe                   3.00000
	S                    1.00000

-------------------------------Phase assemblage--------------------------------

                                                      Moles in assemblage
Phase               SI  log IAP  log K(T, P)   Initial       Final       Delta

Greigite         15.52   -17.25    -32.77    0.000e+00           0   0.000e+00
Mackinawite     -15.47   -10.62      4.85    0.000e+00           0   0.000e+00
Pyrite           27.82     5.37    -22.44    0.000e+00           0   0.000e+00
Pyrrhotite      -14.37   -10.62      3.74    0.000e+00           0   0.000e+00

-----------------------------Solution composition------------------------------

	Elements           Molality       Moles

	Fe                1.800e-11   1.800e-11
	N                 1.000e-12   1.000e-12
	S                 6.000e-12   6.000e-12

----------------------------Description of solution----------------------------

                                       pH  =   6.999      Charge balance
                                       pe  =  -3.342      Adjusted to redox equilibrium
                        Activity of water  =   1.000
                 Ionic strength (mol/kgw)  =   1.003e-07
                       Mass of water (kg)  =   1.000e+00
                 Total alkalinity (eq/kg)  =   2.506e-11
                         Temperature (°C)  =  25.00
                  Electrical balance (eq)  =   1.355e-18
 Percent error, 100*(Cat-|An|)/(Cat+|An|)  =   0.00
                               Iterations  =   3
                                  Total H  = 1.110124e+02
                                  Total O  = 5.550622e+01

----------------------------Distribution of species----------------------------

                                               Log       Log       Log    mole V
   Species          Molality    Activity  Molality  Activity     Gamma    cm³/mol

   OH-             1.003e-07   1.002e-07    -6.999    -6.999    -0.000     (0)  
   H+              1.003e-07   1.002e-07    -6.999    -6.999    -0.000      0.00
   H2O             5.551e+01   1.000e+00     1.744    -0.000     0.000     18.07
Fe(2)         1.800e-11
   Fe+2            1.794e-11   1.792e-11   -10.746   -10.747    -0.001     (0)  
   FeOH+           5.656e-14   5.653e-14   -13.248   -13.248    -0.000     (0)  
   Fe(OH)2         4.801e-18   4.801e-18   -17.319   -17.319     0.000     (0)  
   FeSO4           1.900e-20   1.900e-20   -19.721   -19.721     0.000     (0)  
   Fe(OH)3-        1.781e-21   1.780e-21   -20.749   -20.750    -0.000     (0)  
   Fe(HS)2         3.689e-30   3.689e-30   -29.433   -29.433     0.000     (0)  
   Fe(HS)3-        0.000e+00   0.000e+00   -41.214   -41.214    -0.000     (0)  
Fe(3)         1.820e-19
   Fe(OH)2+        1.612e-19   1.611e-19   -18.793   -18.793    -0.000     (0)  
   Fe(OH)3         1.889e-20   1.889e-20   -19.724   -19.724     0.000     (0)  
   Fe(OH)4-        1.885e-21   1.885e-21   -20.725   -20.725    -0.000     (0)  
   FeOH+2          4.883e-23   4.876e-23   -22.311   -22.312    -0.001     (0)  
   Fe+3            7.594e-28   7.569e-28   -27.120   -27.121    -0.001     (0)  
   FeSO4+          3.755e-35   3.753e-35   -34.425   -34.426    -0.000     (0)  
   Fe2(OH)2+4      0.000e+00   0.000e+00   -43.191   -43.194    -0.003     (0)  
   Fe(SO4)2-       0.000e+00   0.000e+00   -44.150   -44.150    -0.000     (0)  
   Fe3(OH)4+5      0.000e+00   0.000e+00   -59.663   -59.667    -0.004     (0)  
H(0)          6.877e-11
   H2              3.438e-11   3.438e-11   -10.464   -10.464     0.000     (0)  
N(-3)         1.000e-12
   NH4+            9.943e-13   9.940e-13   -12.002   -12.003    -0.000     (0)  
   NH3             5.652e-15   5.652e-15   -14.248   -14.248     0.000     (0)  
   NH4SO4-         7.637e-23   7.634e-23   -22.117   -22.117    -0.000     (0)  
N(0)          1.448e-19
   N2              7.241e-20   7.241e-20   -19.140   -19.140     0.000     (0)  
N(3)          0.000e+00
   NO2-            0.000e+00   0.000e+00   -66.570   -66.571    -0.000     (0)  
N(5)          0.000e+00
   NO3-            0.000e+00   0.000e+00   -87.827   -87.827    -0.000     (0)  
O(0)          0.000e+00
   O2              0.000e+00   0.000e+00   -71.453   -71.453     0.000     (0)  
S(-2)         2.892e-14
   HS-             1.520e-14   1.520e-14   -13.818   -13.818    -0.000     (0)  
   H2S             1.332e-14   1.332e-14   -13.876   -13.876     0.000     (0)  
   S5-2            3.859e-17   3.854e-17   -16.413   -16.414    -0.001     (0)  
   S4-2            2.252e-17   2.248e-17   -16.647   -16.648    -0.001     (0)  
   S6-2            1.998e-17   1.995e-17   -16.699   -16.700    -0.001     (0)  
   S-2             1.834e-20   1.832e-20   -19.736   -19.737    -0.001     (0)  
   S3-2            7.934e-21   7.922e-21   -20.100   -20.101    -0.001     (0)  
   S2-2            4.503e-22   4.496e-22   -21.346   -21.347    -0.001     (0)  
   Fe(HS)2         3.689e-30   3.689e-30   -29.433   -29.433     0.000     (0)  
   Fe(HS)3-        0.000e+00   0.000e+00   -41.214   -41.214    -0.000     (0)  
S(6)          5.971e-12
   SO4-2           5.971e-12   5.962e-12   -11.224   -11.225    -0.001     (0)  
   HSO4-           5.800e-17   5.798e-17   -16.237   -16.237    -0.000     (0)  
   FeSO4           1.900e-20   1.900e-20   -19.721   -19.721     0.000     (0)  
   NH4SO4-         7.637e-23   7.634e-23   -22.117   -22.117    -0.000     (0)  
   FeSO4+          3.755e-35   3.753e-35   -34.425   -34.426    -0.000     (0)  
   Fe(SO4)2-       0.000e+00   0.000e+00   -44.150   -44.150    -0.000     (0)  

------------------------------Saturation indices-------------------------------

  Phase               SI** log IAP   log K(298 K,   1 atm)

  Fe2(SO4)3       -91.50    -87.92    3.58  Fe2(SO4)3
  Fe3(OH)8        -29.22     -9.00   20.22  Fe3(OH)8
  Ferrihydrite    -11.01     -6.12    4.89  Fe(OH)3
  FeS(ppt)        -13.65    -17.57   -3.92  FeS
  Goethite         -6.62     -6.12    0.50  FeOOH
  Greigite        -42.01   -101.12  -59.11  Fe3S4
  Hematite         -8.24    -12.25   -4.01  Fe2O3
  Jarosite-H      -56.72    -68.82  -12.10  (H3O)Fe3(SO4)2(OH)6
  Lepidocrocite    -7.49     -6.12    1.37  FeOOH
  Mackinawite     -15.47    -10.62    4.85  FeS
  Maghemite       -18.63    -12.25    6.39  Fe2O3
  Magnetite       -12.73     -9.00    3.74  Fe3O4
  Melanterite     -19.50    -21.97   -2.47  FeSO4:7H2O
  N2(g)           -15.95    -19.14   -3.19  N2
  NO2(g)          -90.01    -81.02    8.99  NO2
  O2(g)           -68.49     14.63   83.12  O2
  pe_fix            3.34      3.34    0.00  e-
  pH_fix           -7.00     -7.00    0.00  H+
  Pyrite           -5.01    -65.99  -60.98  FeS2
  Pyrrhotite      -14.37    -10.62    3.74  FeS
  Sulfur          -11.39    -13.50   -2.11  S

**For a gas, SI = log10(fugacity). Fugacity = pressure * phi / 1 atm.
  For ideal gases, phi = 1.

Reaction step 7.

Using solution 1.	PURE WATER
Using pure phase assemblage 1.	
Using reaction 1.	

Reaction 1.	

	  1.000e-12 moles of the following reaction have been added:

	                 Relative
	Reactant            moles

	Fe3S1                1.00000

	                 Relative
	Element             moles
	Fe                   3.00000
	S                    1.00000

-------------------------------Phase assemblage--------------------------------

                                                      Moles in assemblage
Phase               SI  log IAP  log K(T, P)   Initial       Final       Delta

Greigite         15.46   -17.32    -32.77    0.000e+00           0   0.000e+00
Mackinawite     -15.07   -10.22      4.85    0.000e+00           0   0.000e+00
Pyrite           27.78     5.34    -22.44    0.000e+00           0   0.000e+00
Pyrrhotite      -13.96   -10.22      3.74    0.000e+00           0   0.000e+00

-----------------------------Solution composition------------------------------

	Elements           Molality       Moles

	Fe                2.100e-11   2.100e-11
	N                 1.000e-12   1.000e-12
	S                 7.000e-12   7.000e-12

----------------------------Description of solution----------------------------

                                       pH  =   6.999      Charge balance
                                       pe  =  -3.376      Adjusted to redox equilibrium
                        Activity of water  =   1.000
                 Ionic strength (mol/kgw)  =   1.003e-07
                       Mass of water (kg)  =   1.000e+00
                 Total alkalinity (eq/kg)  =   2.913e-11
                         Temperature (°C)  =  25.00
                  Electrical balance (eq)  =   1.397e-18
 Percent error, 100*(Cat-|An|)/(Cat+|An|)  =   0.00
                               Iterations  =   3
                                  Total H  = 1.110124e+02
                                  Total O  = 5.550622e+01

----------------------------Distribution of species----------------------------

                                               Log       Log       Log    mole V
   Species          Molality    Activity  Molality  Activity     Gamma    cm³/mol

   OH-             1.003e-07   1.002e-07    -6.999    -6.999    -0.000     (0)  
   H+              1.003e-07   1.002e-07    -6.999    -6.999    -0.000      0.00
   H2O             5.551e+01   1.000e+00     1.744    -0.000     0.000     18.07
Fe(2)         2.100e-11
   Fe+2            2.093e-11   2.090e-11   -10.679   -10.680    -0.001     (0)  
   FeOH+           6.598e-14   6.596e-14   -13.181   -13.181    -0.000     (0)  
   Fe(OH)2         5.602e-18   5.602e-18   -17.252   -17.252     0.000     (0)  
   FeSO4           2.575e-20   2.575e-20   -19.589   -19.589     0.000     (0)  
   Fe(OH)3-        2.078e-21   2.077e-21   -20.682   -20.683    -0.000     (0)  
   Fe(HS)2         2.047e-29   2.047e-29   -28.689   -28.689     0.000     (0)  
   Fe(HS)3-        0.000e+00   0.000e+00   -40.131   -40.131    -0.000     (0)  
Fe(3)         1.963e-19
   Fe(OH)2+        1.738e-19   1.737e-19   -18.760   -18.760    -0.000     (0)  
   Fe(OH)3         2.037e-20   2.037e-20   -19.691   -19.691     0.000     (0)  
   Fe(OH)4-        2.033e-21   2.032e-21   -20.692   -20.692    -0.000     (0)  
   FeOH+2          5.266e-23   5.258e-23   -22.279   -22.279    -0.001     (0)  
   Fe+3            8.189e-28   8.161e-28   -27.087   -27.088    -0.001     (0)  
   FeSO4+          4.704e-35   4.702e-35   -34.328   -34.328    -0.000     (0)  
   Fe2(OH)2+4      0.000e+00   0.000e+00   -43.126   -43.128    -0.003     (0)  
   Fe(SO4)2-       0.000e+00   0.000e+00   -43.987   -43.987    -0.000     (0)  
   Fe3(OH)4+5      0.000e+00   0.000e+00   -59.564   -59.568    -0.004     (0)  
H(0)          8.050e-11
   H2              4.025e-11   4.025e-11   -10.395   -10.395     0.000     (0)  
N(-3)         1.000e-12
   NH4+            9.943e-13   9.940e-13   -12.002   -12.003    -0.000     (0)  
   NH3             5.652e-15   5.652e-15   -14.248   -14.248     0.000     (0)  
   NH4SO4-         8.873e-23   8.869e-23   -22.052   -22.052    -0.000     (0)  
N(0)          9.030e-20
   N2              4.515e-20   4.515e-20   -19.345   -19.345     0.000     (0)  
N(3)          0.000e+00
   NO2-            0.000e+00   0.000e+00   -66.776   -66.776    -0.000     (0)  
N(5)          0.000e+00
   NO3-            0.000e+00   0.000e+00   -88.100   -88.100    -0.000     (0)  
O(0)          0.000e+00
   O2              0.000e+00   0.000e+00   -71.589   -71.589     0.000     (0)  
S(-2)         6.308e-14
   HS-             3.316e-14   3.315e-14   -13.479   -13.480    -0.000     (0)  
   H2S             2.904e-14   2.904e-14   -13.537   -13.537     0.000     (0)  
   S5-2            8.417e-17   8.404e-17   -16.075   -16.075    -0.001     (0)  
   S4-2            4.911e-17   4.904e-17   -16.309   -16.309    -0.001     (0)  
   S6-2            4.357e-17   4.350e-17   -16.361   -16.361    -0.001     (0)  
   S-2             4.001e-20   3.995e-20   -19.398   -19.398    -0.001     (0)  
   S3-2            1.730e-20   1.728e-20   -19.762   -19.762    -0.001     (0)  
   S2-2            9.821e-22   9.806e-22   -21.008   -21.008    -0.001     (0)  
   Fe(HS)2         2.047e-29   2.047e-29   -28.689   -28.689     0.000     (0)  
   Fe(HS)3-        0.000e+00   0.000e+00   -40.131   -40.131    -0.000     (0)  
S(6)          6.937e-12
   SO4-2           6.937e-12   6.927e-12   -11.159   -11.159    -0.001     (0)  
   HSO4-           6.738e-17   6.736e-17   -16.171   -16.172    -0.000     (0)  
   FeSO4           2.575e-20   2.575e-20   -19.589   -19.589     0.000     (0)  
   NH4SO4-         8.873e-23   8.869e-23   -22.052   -22.052    -0.000     (0)  
   FeSO4+          4.704e-35   4.702e-35   -34.328   -34.328    -0.000     (0)  
   Fe(SO4)2-       0.000e+00   0.000e+00   -43.987   -43.987    -0.000     (0)  

------------------------------Saturation indices-------------------------------

  Phase               SI** log IAP   log K(298 K,   1 atm)

  Fe2(SO4)3       -91.23    -87.65    3.58  Fe2(SO4)3
  Fe3(OH)8        -29.09     -8.86   20.22  Fe3(OH)8
  Ferrihydrite    -10.98     -6.09    4.89  Fe(OH)3
  FeS(ppt)        -13.25    -17.16   -3.92  FeS
  Goethite         -6.59     -6.09    0.50  FeOOH
  Greigite        -40.52    -99.63  -59.11  Fe3S4
  Hematite         -8.17    -12.18   -4.01  Fe2O3
  Jarosite-H      -56.49    -68.59  -12.10  (H3O)Fe3(SO4)2(OH)6
  Lepidocrocite    -7.46     -6.09    1.37  FeOOH
  Mackinawite     -15.07    -10.22    4.85  FeS
  Maghemite       -18.57    -12.18    6.39  Fe2O3
  Magnetite       -12.60     -8.86    3.74  Fe3O4
  Melanterite     -19.37    -21.84   -2.47  FeSO4:7H2O
  N2(g)           -16.16    -19.35   -3.19  N2
  NO2(g)          -90.25    -81.26    8.99  NO2
  O2(g)           -68.63     14.49   83.12  O2
  pe_fix            3.38      3.38    0.00  e-
  pH_fix           -7.00     -7.00    0.00  H+
  Pyrite           -4.33    -65.31  -60.98  FeS2
  Pyrrhotite      -13.96    -10.22    3.74  FeS
  Sulfur          -11.12    -13.23   -2.11  S

**For a gas, SI = log10(fugacity). Fugacity = pressure * phi / 1 atm.
  For ideal gases, phi = 1.

Reaction step 8.

Using solution 1.	PURE WATER
Using pure phase assemblage 1.	
Using reaction 1.	

Reaction 1.	

	  1.000e-12 moles of the following reaction have been added:

	                 Relative
	Reactant            moles

	Fe3S1                1.00000

	                 Relative
	Element             moles
	Fe                   3.00000
	S                    1.00000

-------------------------------Phase assemblage--------------------------------

                                                      Moles in assemblage
Phase               SI  log IAP  log K(T, P)   Initial       Final       Delta

Greigite         15.40   -17.37    -32.77    0.000e+00           0   0.000e+00
Mackinawite     -14.72    -9.87      4.85    0.000e+00           0   0.000e+00
Pyrite           27.75     5.31    -22.44    0.000e+00           0   0.000e+00
Pyrrhotite      -13.61    -9.87      3.74    0.000e+00           0   0.000e+00

-----------------------------Solution composition------------------------------

	Elements           Molality       Moles

	Fe                2.400e-11   2.400e-11
	N                 1.000e-12   1.000e-12
	S                 8.000e-12   8.000e-12

----------------------------Description of solution----------------------------

                                       pH  =   6.999      Charge balance
                                       pe  =  -3.406      Adjusted to redox equilibrium
                        Activity of water  =   1.000
                 Ionic strength (mol/kgw)  =   1.003e-07
                       Mass of water (kg)  =   1.000e+00
                 Total alkalinity (eq/kg)  =   3.324e-11
                         Temperature (°C)  =  25.00
                  Electrical balance (eq)  =   1.398e-18
 Percent error, 100*(Cat-|An|)/(Cat+|An|)  =   0.00
                               Iterations  =   3
                                  Total H  = 1.110124e+02
                                  Total O  = 5.550622e+01

----------------------------Distribution of species----------------------------

                                               Log       Log       Log    mole V
   Species          Molality    Activity  Molality  Activity     Gamma    cm³/mol

   OH-             1.003e-07   1.002e-07    -6.999    -6.999    -0.000     (0)  
   H+              1.003e-07   1.002e-07    -6.999    -6.999    -0.000      0.00
   H2O             5.551e+01   1.000e+00     1.744    -0.000     0.000     18.07
Fe(2)         2.400e-11
   Fe+2            2.392e-11   2.389e-11   -10.621   -10.622    -0.001     (0)  
   FeOH+           7.541e-14   7.538e-14   -13.123   -13.123    -0.000     (0)  
   Fe(OH)2         6.402e-18   6.402e-18   -17.194   -17.194     0.000     (0)  
   FeSO4           3.342e-20   3.342e-20   -19.476   -19.476     0.000     (0)  
   Fe(OH)3-        2.375e-21   2.374e-21   -20.624   -20.625    -0.000     (0)  
   Fe(HS)2         8.801e-29   8.801e-29   -28.055   -28.055     0.000     (0)  
   Fe(HS)3-        6.164e-40   6.161e-40   -39.210   -39.210    -0.000     (0)  
Fe(3)         2.098e-19
   Fe(OH)2+        1.858e-19   1.857e-19   -18.731   -18.731    -0.000     (0)  
   Fe(OH)3         2.177e-20   2.177e-20   -19.662   -19.662     0.000     (0)  
   Fe(OH)4-        2.173e-21   2.173e-21   -20.663   -20.663    -0.000     (0)  
   FeOH+2          5.629e-23   5.620e-23   -22.250   -22.250    -0.001     (0)  
   Fe+3            8.753e-28   8.724e-28   -27.058   -27.059    -0.001     (0)  
   FeSO4+          5.710e-35   5.707e-35   -34.243   -34.244    -0.000     (0)  
   Fe2(OH)2+4      0.000e+00   0.000e+00   -43.068   -43.070    -0.003     (0)  
   Fe(SO4)2-       0.000e+00   0.000e+00   -43.848   -43.848    -0.000     (0)  
   Fe3(OH)4+5      0.000e+00   0.000e+00   -59.478   -59.482    -0.004     (0)  
H(0)          9.202e-11
   H2              4.601e-11   4.601e-11   -10.337   -10.337     0.000     (0)  
N(-3)         1.000e-12
   NH4+            9.943e-13   9.940e-13   -12.002   -12.003    -0.000     (0)  
   NH3             5.652e-15   5.652e-15   -14.248   -14.248     0.000     (0)  
   NH4SO4-         1.008e-22   1.007e-22   -21.997   -21.997    -0.000     (0)  
N(0)          6.044e-20
   N2              3.022e-20   3.022e-20   -19.520   -19.520     0.000     (0)  
N(3)          0.000e+00
   NO2-            0.000e+00   0.000e+00   -66.950   -66.950    -0.000     (0)  
N(5)          0.000e+00
   NO3-            0.000e+00   0.000e+00   -88.333   -88.333    -0.000     (0)  
O(0)          0.000e+00
   O2              0.000e+00   0.000e+00   -71.706   -71.706     0.000     (0)  
S(-2)         1.224e-13
   HS-             6.432e-14   6.429e-14   -13.192   -13.192    -0.000     (0)  
   H2S             5.633e-14   5.633e-14   -13.249   -13.249     0.000     (0)  
   S5-2            1.633e-16   1.630e-16   -15.787   -15.788    -0.001     (0)  
   S4-2            9.525e-17   9.511e-17   -16.021   -16.022    -0.001     (0)  
   S6-2            8.450e-17   8.438e-17   -16.073   -16.074    -0.001     (0)  
   S-2             7.760e-20   7.749e-20   -19.110   -19.111    -0.001     (0)  
   S3-2            3.356e-20   3.351e-20   -19.474   -19.475    -0.001     (0)  
   S2-2            1.905e-21   1.902e-21   -20.720   -20.721    -0.001     (0)  
   Fe(HS)2         8.801e-29   8.801e-29   -28.055   -28.055     0.000     (0)  
   Fe(HS)3-        6.164e-40   6.161e-40   -39.210   -39.210    -0.000     (0)  
S(6)          7.878e-12
   SO4-2           7.878e-12   7.866e-12   -11.104   -11.104    -0.001     (0)  
   HSO4-           7.652e-17   7.649e-17   -16.116   -16.116    -0.000     (0)  
   FeSO4           3.342e-20   3.342e-20   -19.476   -19.476     0.000     (0)  
   NH4SO4-         1.008e-22   1.007e-22   -21.997   -21.997    -0.000     (0)  
   FeSO4+          5.710e-35   5.707e-35   -34.243   -34.244    -0.000     (0)  
   Fe(SO4)2-       0.000e+00   0.000e+00   -43.848   -43.848    -0.000     (0)  

------------------------------Saturation indices-------------------------------

  Phase               SI** log IAP   log K(298 K,   1 atm)

  Fe2(SO4)3       -91.01    -87.43    3.58  Fe2(SO4)3
  Fe3(OH)8        -28.97     -8.75   20.22  Fe3(OH)8
  Ferrihydrite    -10.95     -6.06    4.89  Fe(OH)3
  FeS(ppt)        -12.90    -16.81   -3.92  FeS
  Goethite         -6.56     -6.06    0.50  FeOOH
  Greigite        -39.26    -98.37  -59.11  Fe3S4
  Hematite         -8.12    -12.12   -4.01  Fe2O3
  Jarosite-H      -56.29    -68.39  -12.10  (H3O)Fe3(SO4)2(OH)6
  Lepidocrocite    -7.43     -6.06    1.37  FeOOH
  Mackinawite     -14.72     -9.87    4.85  FeS
  Maghemite       -18.51    -12.12    6.39  Fe2O3
  Magnetite       -12.48     -8.75    3.74  Fe3O4
  Melanterite     -19.26    -21.73   -2.47  FeSO4:7H2O
  N2(g)           -16.33    -19.52   -3.19  N2
  NO2(g)          -90.45    -81.47    8.99  NO2
  O2(g)           -68.75     14.37   83.12  O2
  pe_fix            3.41      3.41    0.00  e-
  pH_fix           -7.00     -7.00    0.00  H+
  Pyrite           -3.75    -64.74  -60.98  FeS2
  Pyrrhotite      -13.61     -9.87    3.74  FeS
  Sulfur          -10.89    -13.00   -2.11  S

**For a gas, SI = log10(fugacity). Fugacity = pressure * phi / 1 atm.
  For ideal gases, phi = 1.

Reaction step 9.

Using solution 1.	PURE WATER
Using pure phase assemblage 1.	
Using reaction 1.	

Reaction 1.	

	  1.000e-12 moles of the following reaction have been added:

	                 Relative
	Reactant            moles

	Fe3S1                1.00000

	                 Relative
	Element             moles
	Fe                   3.00000
	S                    1.00000

-------------------------------Phase assemblage--------------------------------

                                                      Moles in assemblage
Phase               SI  log IAP  log K(T, P)   Initial       Final       Delta

Greigite         15.35   -17.43    -32.77    0.000e+00           0   0.000e+00
Mackinawite     -14.42    -9.57      4.85    0.000e+00           0   0.000e+00
Pyrite           27.73     5.29    -22.44    0.000e+00           0   0.000e+00
Pyrrhotite      -13.32    -9.57      3.74    0.000e+00           0   0.000e+00

-----------------------------Solution composition------------------------------

	Elements           Molality       Moles

	Fe                2.700e-11   2.700e-11
	N                 1.000e-12   1.000e-12
	S                 9.000e-12   9.000e-12

----------------------------Description of solution----------------------------

                                       pH  =   6.999      Charge balance
                                       pe  =  -3.431      Adjusted to redox equilibrium
                        Activity of water  =   1.000
                 Ionic strength (mol/kgw)  =   1.003e-07
                       Mass of water (kg)  =   1.000e+00
                 Total alkalinity (eq/kg)  =   3.743e-11
                         Temperature (°C)  =  25.00
                  Electrical balance (eq)  =   1.387e-18
 Percent error, 100*(Cat-|An|)/(Cat+|An|)  =   0.00
                               Iterations  =   3
                                  Total H  = 1.110124e+02
                                  Total O  = 5.550622e+01

----------------------------Distribution of species----------------------------

                                               Log       Log       Log    mole V
   Species          Molality    Activity  Molality  Activity     Gamma    cm³/mol

   OH-             1.003e-07   1.002e-07    -6.999    -6.999    -0.000     (0)  
   H+              1.002e-07   1.002e-07    -6.999    -6.999    -0.000      0.00
   H2O             5.551e+01   1.000e+00     1.744    -0.000     0.000     18.07
Fe(2)         2.700e-11
   Fe+2            2.692e-11   2.688e-11   -10.570   -10.571    -0.001     (0)  
   FeOH+           8.484e-14   8.481e-14   -13.071   -13.072    -0.000     (0)  
   Fe(OH)2         7.203e-18   7.203e-18   -17.142   -17.142     0.000     (0)  
   FeSO4           4.192e-20   4.192e-20   -19.378   -19.378     0.000     (0)  
   Fe(OH)3-        2.671e-21   2.671e-21   -20.573   -20.573    -0.000     (0)  
   Fe(HS)2         3.097e-28   3.097e-28   -27.509   -27.509     0.000     (0)  
   Fe(HS)3-        3.836e-39   3.834e-39   -38.416   -38.416    -0.000     (0)  
Fe(3)         2.228e-19
   Fe(OH)2+        1.973e-19   1.972e-19   -18.705   -18.705    -0.000     (0)  
   Fe(OH)3         2.312e-20   2.312e-20   -19.636   -19.636     0.000     (0)  
   Fe(OH)4-        2.308e-21   2.307e-21   -20.637   -20.637    -0.000     (0)  
   FeOH+2          5.977e-23   5.969e-23   -22.223   -22.224    -0.001     (0)  
   Fe+3            9.295e-28   9.264e-28   -27.032   -27.033    -0.001     (0)  
   FeSO4+          6.760e-35   6.758e-35   -34.170   -34.170    -0.000     (0)  
   Fe2(OH)2+4      0.000e+00   0.000e+00   -43.016   -43.018    -0.003     (0)  
   Fe(SO4)2-       0.000e+00   0.000e+00   -43.727   -43.727    -0.000     (0)  
   Fe3(OH)4+5      0.000e+00   0.000e+00   -59.399   -59.403    -0.004     (0)  
H(0)          1.033e-10
   H2              5.164e-11   5.164e-11   -10.287   -10.287     0.000     (0)  
N(-3)         1.000e-12
   NH4+            9.943e-13   9.940e-13   -12.002   -12.003    -0.000     (0)  
   NH3             5.652e-15   5.652e-15   -14.248   -14.248     0.000     (0)  
   NH4SO4-         1.123e-22   1.123e-22   -21.949   -21.950    -0.000     (0)  
N(0)          4.276e-20
   N2              2.138e-20   2.138e-20   -19.670   -19.670     0.000     (0)  
N(3)          0.000e+00
   NO2-            0.000e+00   0.000e+00   -67.100   -67.100    -0.000     (0)  
N(5)          0.000e+00
   NO3-            0.000e+00   0.000e+00   -88.533   -88.533    -0.000     (0)  
O(0)          0.000e+00
   O2              0.000e+00   0.000e+00   -71.806   -71.806     0.000     (0)  
S(-2)         2.164e-13
   HS-             1.137e-13   1.137e-13   -12.944   -12.944    -0.000     (0)  
   H2S             9.963e-14   9.963e-14   -13.002   -13.002     0.000     (0)  
   S5-2            2.887e-16   2.883e-16   -15.539   -15.540    -0.001     (0)  
   S4-2            1.685e-16   1.682e-16   -15.773   -15.774    -0.001     (0)  
   S6-2            1.495e-16   1.492e-16   -15.825   -15.826    -0.001     (0)  
   S-2             1.372e-19   1.370e-19   -18.862   -18.863    -0.001     (0)  
   S3-2            5.936e-20   5.927e-20   -19.226   -19.227    -0.001     (0)  
   S2-2            3.369e-21   3.364e-21   -20.472   -20.473    -0.001     (0)  
   Fe(HS)2         3.097e-28   3.097e-28   -27.509   -27.509     0.000     (0)  
   Fe(HS)3-        3.836e-39   3.834e-39   -38.416   -38.416    -0.000     (0)  
S(6)          8.784e-12
   SO4-2           8.784e-12   8.770e-12   -11.056   -11.057    -0.001     (0)  
   HSO4-           8.532e-17   8.529e-17   -16.069   -16.069    -0.000     (0)  
   FeSO4           4.192e-20   4.192e-20   -19.378   -19.378     0.000     (0)  
   NH4SO4-         1.123e-22   1.123e-22   -21.949   -21.950    -0.000     (0)  
   FeSO4+          6.760e-35   6.758e-35   -34.170   -34.170    -0.000     (0)  
   Fe(SO4)2-       0.000e+00   0.000e+00   -43.727   -43.727    -0.000     (0)  

------------------------------Saturation indices-------------------------------

  Phase               SI** log IAP   log K(298 K,   1 atm)

  Fe2(SO4)3       -90.82    -87.24    3.58  Fe2(SO4)3
  Fe3(OH)8        -28.87     -8.64   20.22  Fe3(OH)8
  Ferrihydrite    -10.93     -6.04    4.89  Fe(OH)3
  FeS(ppt)        -12.60    -16.52   -3.92  FeS
  Goethite         -6.54     -6.04    0.50  FeOOH
  Greigite        -38.16    -97.27  -59.11  Fe3S4
  Hematite         -8.06    -12.07   -4.01  Fe2O3
  Jarosite-H      -56.12    -68.22  -12.10  (H3O)Fe3(SO4)2(OH)6
  Lepidocrocite    -7.41     -6.04    1.37  FeOOH
  Mackinawite     -14.42     -9.57    4.85  FeS
  Maghemite       -18.46    -12.07    6.39  Fe2O3
  Magnetite       -12.38     -8.64    3.74  Fe3O4
  Melanterite     -19.16    -21.63   -2.47  FeSO4:7H2O
  N2(g)           -16.48    -19.67   -3.19  N2
  NO2(g)          -90.63    -81.64    8.99  NO2
  O2(g)           -68.85     14.27   83.12  O2
  pe_fix            3.43      3.43    0.00  e-
  pH_fix           -7.00     -7.00    0.00  H+
  Pyrite           -3.26    -64.24  -60.98  FeS2
  Pyrrhotite      -13.32     -9.57    3.74  FeS
  Sulfur          -10.70    -12.81   -2.11  S

**For a gas, SI = log10(fugacity). Fugacity = pressure * phi / 1 atm.
  For ideal gases, phi = 1.

Reaction step 10.

Using solution 1.	PURE WATER
Using pure phase assemblage 1.	
Using reaction 1.	

Reaction 1.	

	  1.000e-12 moles of the following reaction have been added:

	                 Relative
	Reactant            moles

	Fe3S1                1.00000

	                 Relative
	Element             moles
	Fe                   3.00000
	S                    1.00000

-------------------------------Phase assemblage--------------------------------

                                                      Moles in assemblage
Phase               SI  log IAP  log K(T, P)   Initial       Final       Delta

Greigite         15.30   -17.47    -32.77    0.000e+00           0   0.000e+00
Mackinawite     -14.16    -9.31      4.85    0.000e+00           0   0.000e+00
Pyrite           27.70     5.26    -22.44    0.000e+00           0   0.000e+00
Pyrrhotite      -13.06    -9.31      3.74    0.000e+00           0   0.000e+00

-----------------------------Solution composition------------------------------

	Elements           Molality       Moles

	Fe                3.000e-11   3.000e-11
	N                 1.000e-12   1.000e-12
	S                 1.000e-11   1.000e-11

----------------------------Description of solution----------------------------

                                       pH  =   6.999      Charge balance
                                       pe  =  -3.452      Adjusted to redox equilibrium
                        Activity of water  =   1.000
                 Ionic strength (mol/kgw)  =   1.003e-07
                       Mass of water (kg)  =   1.000e+00
                 Total alkalinity (eq/kg)  =   4.171e-11
                         Temperature (°C)  =  25.00
                  Electrical balance (eq)  =   1.375e-18
 Percent error, 100*(Cat-|An|)/(Cat+|An|)  =   0.00
                               Iterations  =   3
                                  Total H  = 1.110124e+02
                                  Total O  = 5.550622e+01

----------------------------Distribution of species----------------------------

                                               Log       Log       Log    mole V
   Species          Molality    Activity  Molality  Activity     Gamma    cm³/mol

   OH-             1.003e-07   1.003e-07    -6.999    -6.999    -0.000     (0)  
   H+              1.002e-07   1.002e-07    -6.999    -6.999    -0.000      0.00
   H2O             5.551e+01   1.000e+00     1.744    -0.000     0.000     18.07
Fe(2)         3.000e-11
   Fe+2            2.991e-11   2.986e-11   -10.524   -10.525    -0.001     (0)  
   FeOH+           9.427e-14   9.423e-14   -13.026   -13.026    -0.000     (0)  
   Fe(OH)2         8.004e-18   8.004e-18   -17.097   -17.097     0.000     (0)  
   FeSO4           5.114e-20   5.114e-20   -19.291   -19.291     0.000     (0)  
   Fe(OH)3-        2.969e-21   2.967e-21   -20.527   -20.528    -0.000     (0)  
   Fe(HS)2         9.255e-28   9.255e-28   -27.034   -27.034     0.000     (0)  
   Fe(HS)3-        1.880e-38   1.879e-38   -37.726   -37.726    -0.000     (0)  
Fe(3)         2.354e-19
   Fe(OH)2+        2.085e-19   2.084e-19   -18.681   -18.681    -0.000     (0)  
   Fe(OH)3         2.444e-20   2.444e-20   -19.612   -19.612     0.000     (0)  
   Fe(OH)4-        2.439e-21   2.438e-21   -20.613   -20.613    -0.000     (0)  
   FeOH+2          6.317e-23   6.307e-23   -22.200   -22.200    -0.001     (0)  
   Fe+3            9.822e-28   9.789e-28   -27.008   -27.009    -0.001     (0)  
   FeSO4+          7.845e-35   7.842e-35   -34.105   -34.106    -0.000     (0)  
   Fe2(OH)2+4      0.000e+00   0.000e+00   -42.968   -42.970    -0.003     (0)  
   Fe(SO4)2-       0.000e+00   0.000e+00   -43.622   -43.622    -0.000     (0)  
   Fe3(OH)4+5      0.000e+00   0.000e+00   -59.327   -59.331    -0.004     (0)  
H(0)          1.142e-10
   H2              5.708e-11   5.708e-11   -10.243   -10.243     0.000     (0)  
N(-3)         1.000e-12
   NH4+            9.943e-13   9.940e-13   -12.002   -12.003    -0.000     (0)  
   NH3             5.653e-15   5.653e-15   -14.248   -14.248     0.000     (0)  
   NH4SO4-         1.234e-22   1.233e-22   -21.909   -21.909    -0.000     (0)  
N(0)          3.165e-20
   N2              1.583e-20   1.583e-20   -19.801   -19.801     0.000     (0)  
N(3)          0.000e+00
   NO2-            0.000e+00   0.000e+00   -67.231   -67.231    -0.000     (0)  
N(5)          0.000e+00
   NO3-            0.000e+00   0.000e+00   -88.707   -88.708    -0.000     (0)  
O(0)          0.000e+00
   O2              0.000e+00   0.000e+00   -71.893   -71.893     0.000     (0)  
S(-2)         3.549e-13
   HS-             1.866e-13   1.865e-13   -12.729   -12.729    -0.000     (0)  
   H2S             1.634e-13   1.634e-13   -12.787   -12.787     0.000     (0)  
   S5-2            4.736e-16   4.729e-16   -15.325   -15.325    -0.001     (0)  
   S4-2            2.763e-16   2.759e-16   -15.559   -15.559    -0.001     (0)  
   S6-2            2.451e-16   2.448e-16   -15.611   -15.611    -0.001     (0)  
   S-2             2.251e-19   2.248e-19   -18.648   -18.648    -0.001     (0)  
   S3-2            9.736e-20   9.721e-20   -19.012   -19.012    -0.001     (0)  
   S2-2            5.526e-21   5.517e-21   -20.258   -20.258    -0.001     (0)  
   Fe(HS)2         9.255e-28   9.255e-28   -27.034   -27.034     0.000     (0)  
   Fe(HS)3-        1.880e-38   1.879e-38   -37.726   -37.726    -0.000     (0)  
S(6)          9.645e-12
   SO4-2           9.645e-12   9.631e-12   -11.016   -11.016    -0.001     (0)  
   HSO4-           9.369e-17   9.365e-17   -16.028   -16.028    -0.000     (0)  
   FeSO4           5.114e-20   5.114e-20   -19.291   -19.291     0.000     (0)  
   NH4SO4-         1.234e-22   1.233e-22   -21.909   -21.909    -0.000     (0)  
   FeSO4+          7.845e-35   7.842e-35   -34.105   -34.106    -0.000     (0)  
   Fe(SO4)2-       0.000e+00   0.000e+00   -43.622   -43.622    -0.000     (0)  

------------------------------Saturation indices-------------------------------

  Phase               SI** log IAP   log K(298 K,   1 atm)

  Fe2(SO4)3       -90.65    -87.07    3.58  Fe2(SO4)3
  Fe3(OH)8        -28.77     -8.55   20.22  Fe3(OH)8
  Ferrihydrite    -10.90     -6.01    4.89  Fe(OH)3
[...]
   H2O             5.551e+01   9.979e-01     1.744    -0.001     0.000     18.07
Fe(2)         2.435e-22
   Fe+2            1.762e-22   8.929e-23   -21.754   -22.049    -0.295     (0)  
   FeSO4           6.728e-23   6.792e-23   -22.172   -22.168     0.004     (0)  
   Fe(HS)2         6.507e-27   6.568e-27   -26.187   -26.183     0.004     (0)  
   FeOH+           1.225e-30   1.024e-30   -29.912   -29.990    -0.078     (0)  
   Fe(HS)3-        2.468e-31   2.055e-31   -30.608   -30.687    -0.080     (0)  
   Fe(OH)2         3.133e-40   3.163e-40   -39.504   -39.500     0.004     (0)  
   Fe(OH)3-        0.000e+00   0.000e+00   -48.293   -48.370    -0.078     (0)  
Fe(3)         4.110e-31
   FeSO4+          3.322e-31   2.779e-31   -30.479   -30.556    -0.078     (0)  
   Fe(SO4)2-       4.516e-32   3.760e-32   -31.345   -31.425    -0.080     (0)  
   Fe+3            2.980e-32   7.811e-33   -31.526   -32.107    -0.582     (0)  
   FeOH+2          3.736e-33   1.830e-33   -32.428   -32.738    -0.310     (0)  
   Fe(OH)2+        2.618e-35   2.198e-35   -34.582   -34.658    -0.076     (0)  
   Fe(OH)3         0.000e+00   0.000e+00   -41.032   -41.028     0.004     (0)  
   Fe(OH)4-        0.000e+00   0.000e+00   -47.393   -47.469    -0.076     (0)  
   Fe2(OH)2+4      0.000e+00   0.000e+00   -62.771   -64.045    -1.274     (0)  
   Fe3(OH)4+5      0.000e+00   0.000e+00   -94.393   -96.383    -1.991     (0)  
H(0)          1.197e-12
   H2              5.983e-13   6.040e-13   -12.223   -12.219     0.004     (0)  
N(-3)         1.002e-12
   NH4+            9.506e-13   7.752e-13   -12.022   -12.111    -0.089     (0)  
   NH4SO4-         5.107e-14   4.272e-14   -13.292   -13.369    -0.078     (0)  
   NH3             1.591e-20   1.606e-20   -19.798   -19.794     0.004     (0)  
N(0)          2.137e-25
   N2              1.069e-25   1.079e-25   -24.971   -24.967     0.004     (0)  
N(3)          0.000e+00
   NO2-            0.000e+00   0.000e+00   -72.212   -72.291    -0.080     (0)  
N(5)          0.000e+00
   NO3-            0.000e+00   0.000e+00   -91.707   -91.793    -0.086     (0)  
O(0)          0.000e+00
   O2              0.000e+00   0.000e+00   -67.948   -67.944     0.004     (0)  
S(-2)         6.845e-02
   H2S             6.845e-02   6.909e-02    -1.165    -1.161     0.004     (0)  
   HS-             3.484e-07   2.873e-07    -6.458    -6.542    -0.084     (0)  
   S5-2            5.526e-15   2.654e-15   -14.258   -14.576    -0.319     (0)  
   S4-2            3.224e-15   1.548e-15   -14.492   -14.810    -0.319     (0)  
   S6-2            2.860e-15   1.374e-15   -14.544   -14.862    -0.319     (0)  
   S-2             2.576e-18   1.262e-18   -17.589   -17.899    -0.310     (0)  
   S3-2            1.136e-18   5.456e-19   -17.945   -18.263    -0.319     (0)  
   S2-2            6.448e-20   3.097e-20   -19.191   -19.509    -0.319     (0)  
   Fe(HS)2         6.507e-27   6.568e-27   -26.187   -26.183     0.004     (0)  
   Fe(HS)3-        2.468e-31   2.055e-31   -30.608   -30.687    -0.080     (0)  
S(6)          2.282e-02
   HSO4-           1.371e-02   1.142e-02    -1.863    -1.942    -0.079     (0)  
   SO4-2           9.103e-03   4.278e-03    -2.041    -2.369    -0.328     (0)  
   NH4SO4-         5.107e-14   4.272e-14   -13.292   -13.369    -0.078     (0)  
   FeSO4           6.728e-23   6.792e-23   -22.172   -22.168     0.004     (0)  
   FeSO4+          3.322e-31   2.779e-31   -30.479   -30.556    -0.078     (0)  
   Fe(SO4)2-       4.516e-32   3.760e-32   -31.345   -31.425    -0.080     (0)  

------------------------------Saturation indices-------------------------------

  Phase               SI** log IAP   log K(298 K,   1 atm)

  Fe2(SO4)3       -74.90    -71.32    3.58  Fe2(SO4)3
  Fe3(OH)8        -94.01    -73.79   20.22  Fe3(OH)8
  Ferrihydrite    -32.32    -27.43    4.89  Fe(OH)3
  FeS(ppt)        -23.12    -27.03   -3.92  FeS
  Goethite        -27.93    -27.43    0.50  FeOOH
  Greigite        -55.93   -115.04  -59.11  Fe3S4
  Hematite        -50.85    -54.85   -4.01  Fe2O3
  Jarosite-H      -81.16    -93.26  -12.10  (H3O)Fe3(SO4)2(OH)6
  Lepidocrocite   -28.80    -27.43    1.37  FeOOH
  Mackinawite     -24.94    -20.09    4.85  FeS
  Maghemite       -61.24    -54.85    6.39  Fe2O3
  Magnetite       -77.52    -73.78    3.74  Fe3O4
  Melanterite     -21.95    -24.42   -2.47  FeSO4:7H2O
  N2(g)           -21.78    -24.97   -3.19  N2
  NO2(g)          -89.41    -80.43    8.99  NO2
  O2(g)           -64.98     18.14   83.12  O2
  pe_fix           -2.97     -2.97    0.00  e-
  pH_fix           -1.56     -1.56    0.00  H+
  Pyrite            0.00    -60.98  -60.98  FeS2
  Pyrrhotite      -23.83    -20.09    3.74  FeS
  Sulfur            3.08      0.97   -2.11  S

**For a gas, SI = log10(fugacity). Fugacity = pressure * phi / 1 atm.
  For ideal gases, phi = 1.

Reaction step 109.

Using solution 1.	PURE WATER
Using pure phase assemblage 1.	
Using reaction 1.	

Reaction 1.	

	  1.000e-02 moles of the following reaction have been added:

	                 Relative
	Reactant            moles

	Fe1S3                1.00000

	                 Relative
	Element             moles
	Fe                   1.00000
	S                    3.00000

-------------------------------Phase assemblage--------------------------------

                                                      Moles in assemblage
Phase               SI  log IAP  log K(T, P)   Initial       Final       Delta

Greigite         48.76    15.99    -32.77    0.000e+00           0   0.000e+00
Mackinawite     -25.00   -20.15      4.85    0.000e+00           0   0.000e+00
Pyrite           33.48    11.04    -22.44    9.111e-02   1.011e-01   1.000e-02
Pyrrhotite      -23.89   -20.15      3.74    0.000e+00           0   0.000e+00

-----------------------------Solution composition------------------------------

	Elements           Molality       Moles

	Fe                2.351e-22   2.346e-22
	N                 1.002e-12   1.000e-12
	S                 1.013e-01   1.011e-01

----------------------------Description of solution----------------------------

                                       pH  =   1.522      Charge balance
                                       pe  =   3.018      Adjusted to redox equilibrium
                        Activity of water  =   0.998
                 Ionic strength (mol/kgw)  =   4.471e-02
                       Mass of water (kg)  =   9.982e-01
                 Total alkalinity (eq/kg)  =  -5.065e-02
                         Temperature (°C)  =  25.00
                  Electrical balance (eq)  =   4.846e-12
 Percent error, 100*(Cat-|An|)/(Cat+|An|)  =   0.00
                               Iterations  =   8
                                  Total H  = 1.110124e+02
                                  Total O  = 5.550622e+01

----------------------------Distribution of species----------------------------

                                               Log       Log       Log    mole V
   Species          Molality    Activity  Molality  Activity     Gamma    cm³/mol

   H+              3.502e-02   3.005e-02    -1.456    -1.522    -0.066      0.00
   OH-             4.072e-13   3.335e-13   -12.390   -12.477    -0.087     (0)  
   H2O             5.551e+01   9.977e-01     1.744    -0.001     0.000     18.07
Fe(2)         2.351e-22
   Fe+2            1.694e-22   8.405e-23   -21.771   -22.075    -0.304     (0)  
   FeSO4           6.562e-23   6.630e-23   -22.183   -22.178     0.004     (0)  
   Fe(HS)2         6.326e-27   6.391e-27   -26.199   -26.194     0.004     (0)  
   FeOH+           1.061e-30   8.823e-31   -29.974   -30.054    -0.080     (0)  
   Fe(HS)3-        2.456e-31   2.033e-31   -30.610   -30.692    -0.082     (0)  
   Fe(OH)2         2.467e-40   2.493e-40   -39.608   -39.603     0.004     (0)  
   Fe(OH)3-        0.000e+00   0.000e+00   -48.432   -48.512    -0.080     (0)  
Fe(3)         4.482e-31
   FeSO4+          3.613e-31   3.005e-31   -30.442   -30.522    -0.080     (0)  
   Fe(SO4)2-       5.094e-32   4.216e-32   -31.293   -31.375    -0.082     (0)  
   Fe+3            3.222e-32   8.144e-33   -31.492   -32.089    -0.597     (0)  
   FeOH+2          3.648e-33   1.746e-33   -32.438   -32.758    -0.320     (0)  
   Fe(OH)2+        2.299e-35   1.919e-35   -34.639   -34.717    -0.078     (0)  
   Fe(OH)3         0.000e+00   0.000e+00   -41.130   -41.126     0.004     (0)  
   Fe(OH)4-        0.000e+00   0.000e+00   -47.526   -47.605    -0.078     (0)  
   Fe2(OH)2+4      0.000e+00   0.000e+00   -62.771   -64.086    -1.315     (0)  
   Fe3(OH)4+5      0.000e+00   0.000e+00   -94.429   -96.483    -2.054     (0)  
H(0)          1.163e-12
   H2              5.817e-13   5.877e-13   -12.235   -12.231     0.004     (0)  
N(-3)         1.002e-12
   NH4+            9.490e-13   7.681e-13   -12.023   -12.115    -0.092     (0)  
   NH4SO4-         5.278e-14   4.390e-14   -13.278   -13.358    -0.080     (0)  
   NH3             1.441e-20   1.456e-20   -19.841   -19.837     0.004     (0)  
N(0)          1.906e-25
   N2              9.530e-26   9.629e-26   -25.021   -25.016     0.004     (0)  
N(3)          0.000e+00
   NO2-            0.000e+00   0.000e+00   -72.255   -72.337    -0.082     (0)  
N(5)          0.000e+00
   NO3-            0.000e+00   0.000e+00   -91.738   -91.827    -0.089     (0)  
O(0)          0.000e+00
   O2              0.000e+00   0.000e+00   -67.925   -67.920     0.004     (0)  
S(-2)         7.597e-02
   H2S             7.597e-02   7.676e-02    -1.119    -1.115     0.004     (0)  
   HS-             3.567e-07   2.921e-07    -6.448    -6.534    -0.087     (0)  
   S5-2            5.264e-15   2.470e-15   -14.279   -14.607    -0.329     (0)  
   S4-2            3.071e-15   1.441e-15   -14.513   -14.841    -0.329     (0)  
   S6-2            2.725e-15   1.278e-15   -14.565   -14.893    -0.329     (0)  
   S-2             2.454e-18   1.174e-18   -17.610   -17.930    -0.320     (0)  
   S3-2            1.082e-18   5.077e-19   -17.966   -18.294    -0.329     (0)  
   S2-2            6.142e-20   2.882e-20   -19.212   -19.540    -0.329     (0)  
   Fe(HS)2         6.326e-27   6.391e-27   -26.199   -26.194     0.004     (0)  
   Fe(HS)3-        2.456e-31   2.033e-31   -30.610   -30.692    -0.082     (0)  
S(6)          2.532e-02
   HSO4-           1.563e-02   1.294e-02    -1.806    -1.888    -0.082     (0)  
   SO4-2           9.691e-03   4.436e-03    -2.014    -2.353    -0.339     (0)  
   NH4SO4-         5.278e-14   4.390e-14   -13.278   -13.358    -0.080     (0)  
   FeSO4           6.562e-23   6.630e-23   -22.183   -22.178     0.004     (0)  
   FeSO4+          3.613e-31   3.005e-31   -30.442   -30.522    -0.080     (0)  
   Fe(SO4)2-       5.094e-32   4.216e-32   -31.293   -31.375    -0.082     (0)  

------------------------------Saturation indices-------------------------------

  Phase               SI** log IAP   log K(298 K,   1 atm)

  Fe2(SO4)3       -74.82    -71.24    3.58  Fe2(SO4)3
  Fe3(OH)8        -94.31    -74.09   20.22  Fe3(OH)8
  Ferrihydrite    -32.42    -27.53    4.89  Fe(OH)3
  FeS(ppt)        -23.17    -27.09   -3.92  FeS
  Goethite        -28.02    -27.52    0.50  FeOOH
  Greigite        -56.05   -115.16  -59.11  Fe3S4
  Hematite        -51.04    -55.05   -4.01  Fe2O3
  Jarosite-H      -81.27    -93.37  -12.10  (H3O)Fe3(SO4)2(OH)6
  Lepidocrocite   -28.90    -27.52    1.37  FeOOH
  Mackinawite     -25.00    -20.15    4.85  FeS
  Maghemite       -61.43    -55.05    6.39  Fe2O3
  Magnetite       -77.82    -74.08    3.74  Fe3O4
  Melanterite     -21.97    -24.44   -2.47  FeSO4:7H2O
  N2(g)           -21.83    -25.02   -3.19  N2
  NO2(g)          -89.41    -80.43    8.99  NO2
  O2(g)           -64.96     18.16   83.12  O2
  pe_fix           -3.02     -3.02    0.00  e-
  pH_fix           -1.52     -1.52    0.00  H+
  Pyrite            0.00    -60.98  -60.98  FeS2
  Pyrrhotite      -23.89    -20.15    3.74  FeS
  Sulfur            3.13      1.02   -2.11  S

**For a gas, SI = log10(fugacity). Fugacity = pressure * phi / 1 atm.
  For ideal gases, phi = 1.

Reaction step 110.

Using solution 1.	PURE WATER
Using pure phase assemblage 1.	
Using reaction 1.	

Reaction 1.	

	  1.000e-02 moles of the following reaction have been added:

	                 Relative
	Reactant            moles

	Fe1S3                1.00000

	                 Relative
	Element             moles
	Fe                   1.00000
	S                    3.00000

-------------------------------Phase assemblage--------------------------------

                                                      Moles in assemblage
Phase               SI  log IAP  log K(T, P)   Initial       Final       Delta

Greigite         48.93    16.15    -32.77    0.000e+00           0   0.000e+00
Mackinawite     -25.05   -20.20      4.85    0.000e+00           0   0.000e+00
Pyrite           33.49    11.05    -22.44    1.011e-01   1.111e-01   1.000e-02
Pyrrhotite      -23.94   -20.20      3.74    0.000e+00           0   0.000e+00

-----------------------------Solution composition------------------------------

	Elements           Molality       Moles

	Fe                2.277e-22   2.272e-22
	N                 1.002e-12   1.000e-12
	S                 1.113e-01   1.111e-01

----------------------------Description of solution----------------------------

                                       pH  =   1.487      Charge balance
                                       pe  =   3.059      Adjusted to redox equilibrium
                        Activity of water  =   0.997
                 Ionic strength (mol/kgw)  =   4.833e-02
                       Mass of water (kg)  =   9.980e-01
                 Total alkalinity (eq/kg)  =  -5.567e-02
                         Temperature (°C)  =  25.00
                  Electrical balance (eq)  =   4.845e-12
 Percent error, 100*(Cat-|An|)/(Cat+|An|)  =   0.00
                               Iterations  =   8
                                  Total H  = 1.110124e+02
                                  Total O  = 5.550622e+01

----------------------------Distribution of species----------------------------

                                               Log       Log       Log    mole V
   Species          Molality    Activity  Molality  Activity     Gamma    cm³/mol

   H+              3.808e-02   3.257e-02    -1.419    -1.487    -0.068      0.00
   OH-             3.781e-13   3.077e-13   -12.422   -12.512    -0.090     (0)  
   H2O             5.551e+01   9.975e-01     1.744    -0.001     0.000     18.07
Fe(2)         2.277e-22
   Fe+2            1.636e-22   7.959e-23   -21.786   -22.099    -0.313     (0)  
   FeSO4           6.409e-23   6.481e-23   -22.193   -22.188     0.005     (0)  
   Fe(HS)2         6.168e-27   6.237e-27   -26.210   -26.205     0.005     (0)  
   FeOH+           9.318e-31   7.708e-31   -30.031   -30.113    -0.082     (0)  
   Fe(HS)3-        2.447e-31   2.014e-31   -30.611   -30.696    -0.085     (0)  
   Fe(OH)2         1.987e-40   2.009e-40   -39.702   -39.697     0.005     (0)  
   Fe(OH)3-        0.000e+00   0.000e+00   -48.558   -48.641    -0.082     (0)  
Fe(3)         4.844e-31
   FeSO4+          3.895e-31   3.222e-31   -30.409   -30.492    -0.082     (0)  
   Fe(SO4)2-       5.668e-32   4.666e-32   -31.247   -31.331    -0.085     (0)  
   Fe+3            3.459e-32   8.460e-33   -31.461   -32.073    -0.612     (0)  
   FeOH+2          3.573e-33   1.673e-33   -32.447   -32.777    -0.330     (0)  
   Fe(OH)2+        2.043e-35   1.697e-35   -34.690   -34.770    -0.081     (0)  
   Fe(OH)3         0.000e+00   0.000e+00   -41.219   -41.214     0.005     (0)  
   Fe(OH)4-        0.000e+00   0.000e+00   -47.648   -47.728    -0.081     (0)  
   Fe2(OH)2+4      0.000e+00   0.000e+00   -62.771   -64.123    -1.352     (0)  
   Fe3(OH)4+5      0.000e+00   0.000e+00   -94.460   -96.573    -2.113     (0)  
H(0)          1.134e-12
   H2              5.671e-13   5.735e-13   -12.246   -12.241     0.005     (0)  
N(-3)         1.002e-12
   NH4+            9.477e-13   7.615e-13   -12.023   -12.118    -0.095     (0)  
   NH4SO4-         5.431e-14   4.492e-14   -13.265   -13.348    -0.082     (0)  
   NH3             1.318e-20   1.333e-20   -19.880   -19.875     0.005     (0)  
N(0)          1.716e-25
   N2              8.579e-26   8.675e-26   -25.067   -25.062     0.005     (0)  
N(3)          0.000e+00
   NO2-            0.000e+00   0.000e+00   -72.294   -72.379    -0.085     (0)  
N(5)          0.000e+00
   NO3-            0.000e+00   0.000e+00   -91.766   -91.858    -0.092     (0)  
O(0)          0.000e+00
   O2              0.000e+00   0.000e+00   -67.904   -67.899     0.005     (0)  
S(-2)         8.350e-02
   H2S             8.350e-02   8.443e-02    -1.078    -1.073     0.005     (0)  
   HS-             3.644e-07   2.965e-07    -6.438    -6.528    -0.090     (0)  
   S5-2            5.039e-15   2.314e-15   -14.298   -14.636    -0.338     (0)  
   S4-2            2.940e-15   1.350e-15   -14.532   -14.870    -0.338     (0)  
   S6-2            2.608e-15   1.198e-15   -14.584   -14.922    -0.338     (0)  
   S-2             2.349e-18   1.100e-18   -17.629   -17.959    -0.330     (0)  
   S3-2            1.036e-18   4.757e-19   -17.985   -18.323    -0.338     (0)  
   S2-2            5.880e-20   2.700e-20   -19.231   -19.569    -0.338     (0)  
   Fe(HS)2         6.168e-27   6.237e-27   -26.210   -26.205     0.005     (0)  
   Fe(HS)3-        2.447e-31   2.014e-31   -30.611   -30.696    -0.085     (0)  
S(6)          2.783e-02
   HSO4-           1.758e-02   1.447e-02    -1.755    -1.840    -0.085     (0)  
   SO4-2           1.025e-02   4.579e-03    -1.989    -2.339    -0.350     (0)  
   NH4SO4-         5.431e-14   4.492e-14   -13.265   -13.348    -0.082     (0)  
   FeSO4           6.409e-23   6.481e-23   -22.193   -22.188     0.005     (0)  
   FeSO4+          3.895e-31   3.222e-31   -30.409   -30.492    -0.082     (0)  
   Fe(SO4)2-       5.668e-32   4.666e-32   -31.247   -31.331    -0.085     (0)  

------------------------------Saturation indices-------------------------------

  Phase               SI** log IAP   log K(298 K,   1 atm)

  Fe2(SO4)3       -74.74    -71.16    3.58  Fe2(SO4)3
  Fe3(OH)8        -94.58    -74.36   20.22  Fe3(OH)8
  Ferrihydrite    -32.51    -27.61    4.89  Fe(OH)3
  FeS(ppt)        -23.22    -27.14   -3.92  FeS
  Goethite        -28.11    -27.61    0.50  FeOOH
  Greigite        -56.15   -115.26  -59.11  Fe3S4
  Hematite        -51.22    -55.23   -4.01  Fe2O3
  Jarosite-H      -81.37    -93.47  -12.10  (H3O)Fe3(SO4)2(OH)6
  Lepidocrocite   -28.98    -27.61    1.37  FeOOH
  Mackinawite     -25.05    -20.20    4.85  FeS
  Maghemite       -61.61    -55.23    6.39  Fe2O3
  Magnetite       -78.09    -74.35    3.74  Fe3O4
  Melanterite     -21.98    -24.45   -2.47  FeSO4:7H2O
  N2(g)           -21.88    -25.06   -3.19  N2
  NO2(g)          -89.42    -80.43    8.99  NO2
  O2(g)           -64.94     18.18   83.12  O2
  pe_fix           -3.06     -3.06    0.00  e-
  pH_fix           -1.49     -1.49    0.00  H+
  Pyrite           -0.00    -60.98  -60.98  FeS2
  Pyrrhotite      -23.94    -20.20    3.74  FeS
  Sulfur            3.19      1.08   -2.11  S

**For a gas, SI = log10(fugacity). Fugacity = pressure * phi / 1 atm.
  For ideal gases, phi = 1.

------------------
End of simulation.
------------------

------------------------------------
Reading input data for simulation 9.
------------------------------------

-------------------------------
End of Run after 2.282 Seconds.
-------------------------------

