   Input file: C:\Users\jt2020\OneDrive - Imperial College London\Data\Thermodynamics\Thermodynamics\Phreeq\Reaction Progress\All models with pyrrhotite\HS-\HS-  pH 8, -400 mV Fe dom.pqi
  Output file: C:\Users\jt2020\OneDrive - Imperial College London\Data\Thermodynamics\Thermodynamics\Phreeq\Reaction Progress\All models with pyrrhotite\HS-\HS-  pH 8, -400 mV Fe dom.pqo
Database file: C:\Users\jt2020\OneDrive - Imperial College London\Data\Thermodynamics\Thermodynamics\Phreeq\Reaction Progress\All models with pyrrhotite\Database\llnlpyrrminteq.dat

------------------
Reading data base.
------------------

	SOLUTION_MASTER_SPECIES
	SOLUTION_SPECIES
	SOLUTION_SPECIES
	PHASES
	SURFACE_MASTER_SPECIES
	SURFACE_SPECIES
	END
------------------------------------
Reading input data for simulation 1.
------------------------------------

	DATABASE C:\Users\jt2020\OneDrive - Imperial College London\Data\Thermodynamics\Thermodynamics\Phreeq\Reaction Progress\All models with pyrrhotite\Database\llnlpyrrminteq.dat
	TITLE -250mV pH 6
	SOLUTION 1  PURE WATER
	            pH    8 charge
	          temp   25.0
	           pe     -6.76       #-400 mV 
	PHASES
	       pH_fix
	                H + = H +
	                log_k = 0.0
	       pe_fix
	                e- = e-
	                log_k 0.0
	       Mackinawite   
	                FeS + H+ = Fe+2 + HS-
	                log_k          -2.1371
	                delta_h        -3.578 kcal
	       Pyrrhotite
	                FeS + H+ = Fe+2 + HS-
	                log_k     -3.24554
	                delta_h        -2.646 kcal
	        Greigite
	                Fe3S4 + 4H+ = 2Fe+3 + Fe+2 + 4HS-
	                log_k   -41.128
	                delta_h  42.2473      kcal
	        Pyrite
	                FeS2 + 2H+ + 2e- = Fe+2 + 2HS-
	                log_k          -18.479
	                delta_h        11.3    kcal
	        NaNO3
	                NaNO3 = Na+ + NO3-
	                log_K -20
	        NaCl
	                NaCl = Cl- + Na+
	                log_k     -20
	END
-----
TITLE
-----

 -250mV pH 6

-------------------------------------------
Beginning of initial solution calculations.
-------------------------------------------

Initial solution 1.	PURE WATER

-----------------------------Solution composition------------------------------

	Elements           Molality       Moles

	Pure water     

----------------------------Description of solution----------------------------

                                       pH  =   6.999      Charge balance
                                       pe  =  -6.760    
                        Activity of water  =   1.000
                 Ionic strength (mol/kgw)  =   1.003e-07
                       Mass of water (kg)  =   1.000e+00
                 Total alkalinity (eq/kg)  =   4.513e-21
                         Temperature (°C)  =  25.00
                  Electrical balance (eq)  =  -4.513e-21
 Percent error, 100*(Cat-|An|)/(Cat+|An|)  =  -0.00
                               Iterations  =   6
                                  Total H  = 1.110129e+02
                                  Total O  = 5.550622e+01

----------------------------Distribution of species----------------------------

                                               Log       Log       Log    mole V
   Species          Molality    Activity  Molality  Activity     Gamma    cm³/mol

   OH-             1.003e-07   1.002e-07    -6.999    -6.999    -0.000     (0)  
   H+              1.003e-07   1.002e-07    -6.999    -6.999    -0.000      0.00
   H2O             5.551e+01   1.000e+00     1.744    -0.000     0.000     18.07
H(0)          4.710e-04
   H2              2.355e-04   2.355e-04    -3.628    -3.628     0.000     (0)  
O(0)          0.000e+00
   O2              0.000e+00   0.000e+00   -85.124   -85.124     0.000     (0)  

------------------------------Saturation indices-------------------------------

  Phase               SI** log IAP   log K(298 K,   1 atm)

  O2(g)           -82.16      0.96   83.12  O2
  pe_fix            6.76      6.76    0.00  e-
  pH_fix           -7.00     -7.00    0.00  H+

**For a gas, SI = log10(fugacity). Fugacity = pressure * phi / 1 atm.
  For ideal gases, phi = 1.

------------------
End of simulation.
------------------

------------------------------------
Reading input data for simulation 2.
------------------------------------

	INCREMENTAL_REACTIONS
	REACTION
	Fe3S1 1
	10*1e-12 10*1e-11 10*1e-10 10*1e-9 10*1e-8 10*1e-7 10*1e-6 10*1e-5 10*1e-4  10*1e-3  10*1e-2 mol
	USE solution 1
	EQUILIBRIUM_PHASES 1
	        Mackinawite     0.0     0.0
	        Pyrrhotite      0.0     0.0
	        Greigite        0.0     0.0
	        Pyrite          0.0     0.0
	        NaNO3           0.0     0.0001    
	        pH_fix          -8      HCl      10.0     
	        pe_fix          6.76   O2(g)     10.0
	USER_GRAPH 1 Simulation 6
	    -headings               Pyrite Greigite Mackinawite Pyrrhotite
	    -axis_titles            "Fe and S added, Log moles" "Mineral, moles"
	    -chart_title            "Iron dominant system with HS- as the oxidant"
	    -axis_scale sy_axis     auto auto auto auto log
	    -initial_solutions      false
	    -connect_simulations    false
	    -axis_scale y_axis      auto auto auto auto Log
	    -axis_scale sy_axis	    auto auto auto auto Log
	    -plot_concentration_vs  x
	  -start
	 5 PUT(GET(1) + RXN, 1)
	  20 PLOT_XY log10(GET(1)), EQUI("Pyrite") color = Green, line_w = 0,   	symbol = Plus, symbol_size = 5, y_axis = 2
	  30 PLOT_XY log10(GET(1)), EQUI("Greigite") color = Blue, line_w = 0,   	symbol = Plus, symbol_size = 5, y_axis = 2
	  40 PLOT_XY log10(GET(1)), EQUI("Mackinawite") color = Cyan, line_w = 0,   	symbol = Plus, symbol_size = 5, y_axis = 2
	  60 PLOT_XY log10(GET(1)), EQUI("Pyrrhotite") color = Red, line_w = 0,   	symbol = Plus, symbol_size = 5, y_axis = 2
	  -end
	    -active                 true
	SELECTED_OUTPUT
	    file                 HS- Fe buffered.csv
	    saturation_indices   Mackinawite  Greigite  Pyrite Pyrrhotite
	    reaction             
	    totals               Fe S 
	    equilibrium_phases   Mackinawite  Greigite  Pyrite Pyrrhotite
	END
-----------------------------------------
Beginning of batch-reaction calculations.
-----------------------------------------

Reaction step 1.

WARNING: pH_fix, Pure phase with add formula has not converged.
	 SI may be a local minimum.	Residual: 4.716706e+00

Using solution 1.	PURE WATER
Using pure phase assemblage 1.	
Using reaction 1.	

Reaction 1.	

	  1.000e-12 moles of the following reaction have been added:

	                 Relative
	Reactant            moles

	Fe3S1                1.00000

	                 Relative
	Element             moles
	Fe                   3.00000
	S                    1.00000

-------------------------------Phase assemblage--------------------------------

                                                      Moles in assemblage
Phase               SI  log IAP  log K(T, P)   Initial       Final       Delta

Greigite        -53.95   -95.07    -41.13    0.000e+00           0   0.000e+00
Mackinawite     -14.79   -16.93     -2.14    0.000e+00           0   0.000e+00
NaNO3           -61.55   -81.55    -20.00    1.000e-04           0  -1.000e-04
Pyrite          -16.67   -35.15    -18.48    0.000e+00           0   0.000e+00
Pyrrhotite      -13.69   -16.93     -3.25    0.000e+00           0   0.000e+00
pH_fix          -10.05   -10.05      0.00
	 HCl                is reactant       1.000e+01   1.000e+01   8.274e-18
pe_fix            6.76     6.76      0.00
	 O2                 is reactant       1.000e+01   1.000e+01   8.225e-05

-----------------------------Solution composition------------------------------

	Elements           Molality       Moles

	Cl                0.000e+00   0.000e+00
	Fe                3.000e-12   3.000e-12
	N                 1.000e-04   1.000e-04
	Na                1.000e-04   1.000e-04
	S                 1.000e-12   1.000e-12

----------------------------Description of solution----------------------------

                                       pH  =  10.048      Charge balance
                                       pe  =  -6.760      Adjusted to redox equilibrium
                        Activity of water  =   1.000
                 Ionic strength (mol/kgw)  =   1.137e-04
                       Mass of water (kg)  =   1.000e+00
                 Total alkalinity (eq/kg)  =   2.000e-04
                         Temperature (°C)  =  25.00
                  Electrical balance (eq)  =  -2.673e-19
 Percent error, 100*(Cat-|An|)/(Cat+|An|)  =  -0.00
                               Iterations  =  29
                                  Total H  = 1.110129e+02
                                  Total O  = 5.550635e+01

----------------------------Distribution of species----------------------------

                                               Log       Log       Log    mole V
   Species          Molality    Activity  Molality  Activity     Gamma    cm³/mol

   OH-             1.137e-04   1.123e-04    -3.944    -3.950    -0.005     (0)  
   H+              9.054e-11   8.945e-11   -10.043   -10.048    -0.005      0.00
   H2O             5.551e+01   1.000e+00     1.744    -0.000     0.000     18.07
Cl            0.000e+00
   Cl-             0.000e+00   0.000e+00   -41.128   -41.134    -0.005     (0)  
   FeCl+2          0.000e+00   0.000e+00   -71.661   -71.682    -0.021     (0)  
   FeCl2+          0.000e+00   0.000e+00  -112.160  -112.166    -0.005     (0)  
   FeCl3           0.000e+00   0.000e+00  -154.299  -154.299     0.000     (0)  
Fe(2)         2.962e-12
   FeOH+           2.076e-12   2.051e-12   -11.683   -11.688    -0.005     (0)  
   Fe+2            6.092e-13   5.800e-13   -12.215   -12.237    -0.021     (0)  
   Fe(OH)2         1.951e-13   1.951e-13   -12.710   -12.710     0.000     (0)  
   Fe(OH)3-        8.206e-14   8.105e-14   -13.086   -13.091    -0.005     (0)  
   FeSO4           9.241e-23   9.242e-23   -22.034   -22.034     0.000     (0)  
   Fe(HS)2         1.683e-33   1.683e-33   -32.774   -32.774     0.000     (0)  
   Fe(HS)3-        0.000e+00   0.000e+00   -45.475   -45.481    -0.005     (0)  
Fe(3)         3.753e-14
   Fe(OH)4-        3.720e-14   3.675e-14   -13.429   -13.435    -0.005     (0)  
   Fe(OH)3         3.287e-16   3.287e-16   -15.483   -15.483     0.000     (0)  
   Fe(OH)2+        2.533e-18   2.502e-18   -17.596   -17.602    -0.005     (0)  
   FeOH+2          7.100e-25   6.759e-25   -24.149   -24.170    -0.021     (0)  
   Fe+3            1.045e-32   9.364e-33   -31.981   -32.029    -0.047     (0)  
   FeSO4+          0.000e+00   0.000e+00   -40.151   -40.156    -0.005     (0)  
   Fe2(OH)2+4      0.000e+00   0.000e+00   -46.824   -46.910    -0.086     (0)  
   Fe(SO4)2-       0.000e+00   0.000e+00   -50.699   -50.704    -0.005     (0)  
   Fe3(OH)4+5      0.000e+00   0.000e+00   -62.058   -62.192    -0.134     (0)  
   FeCl+2          0.000e+00   0.000e+00   -71.661   -71.682    -0.021     (0)  
   FeCl2+          0.000e+00   0.000e+00  -112.160  -112.166    -0.005     (0)  
   FeCl3           0.000e+00   0.000e+00  -154.299  -154.299     0.000     (0)  
H(0)          3.751e-10
   H2              1.875e-10   1.876e-10    -9.727    -9.727     0.000     (0)  
N(-3)         1.000e-04
   NH3             8.629e-05   8.629e-05    -4.064    -4.064     0.000     (0)  
   NH4+            1.371e-05   1.354e-05    -4.863    -4.868    -0.005     (0)  
   NH4SO4-         1.583e-16   1.563e-16   -15.801   -15.806    -0.005     (0)  
N(3)          0.000e+00
   NO2-            0.000e+00   0.000e+00   -55.542   -55.548    -0.005     (0)  
N(5)          0.000e+00
   NO3-            0.000e+00   0.000e+00   -77.535   -77.541    -0.005     (0)  
Na            1.000e-04
   Na+             1.000e-04   9.877e-05    -4.000    -4.005    -0.005     (0)  
   NaSO4-          4.490e-16   4.435e-16   -15.348   -15.353    -0.005     (0)  
O(0)          0.000e+00
   O2              0.000e+00   0.000e+00   -72.926   -72.926     0.000     (0)  
S(-2)         5.806e-14
   S5-2            5.386e-15   5.126e-15   -14.269   -14.290    -0.021     (0)  
   S4-2            3.142e-15   2.991e-15   -14.503   -14.524    -0.021     (0)  
   S6-2            2.788e-15   2.653e-15   -14.555   -14.576    -0.021     (0)  
   HS-             1.827e-15   1.804e-15   -14.738   -14.744    -0.005     (0)  
   S-2             2.560e-18   2.437e-18   -17.592   -17.613    -0.021     (0)  
   H2S             1.411e-18   1.411e-18   -17.850   -17.850     0.000     (0)  
   S3-2            1.107e-18   1.054e-18   -17.956   -17.977    -0.021     (0)  
   S2-2            6.284e-20   5.981e-20   -19.202   -19.223    -0.021     (0)  
   Fe(HS)2         1.683e-33   1.683e-33   -32.774   -32.774     0.000     (0)  
   Fe(HS)3-        0.000e+00   0.000e+00   -45.475   -45.481    -0.005     (0)  
S(6)          9.419e-13
   SO4-2           9.413e-13   8.960e-13   -12.026   -12.048    -0.021     (0)  
   NaSO4-          4.490e-16   4.435e-16   -15.348   -15.353    -0.005     (0)  
   NH4SO4-         1.583e-16   1.563e-16   -15.801   -15.806    -0.005     (0)  
   HSO4-           7.873e-21   7.777e-21   -20.104   -20.109    -0.005     (0)  
   FeSO4           9.241e-23   9.242e-23   -22.034   -22.034     0.000     (0)  
   FeSO4+          0.000e+00   0.000e+00   -40.151   -40.156    -0.005     (0)  
   Fe(SO4)2-       0.000e+00   0.000e+00   -50.699   -50.704    -0.005     (0)  

------------------------------Saturation indices-------------------------------

  Phase               SI** log IAP   log K(298 K,   1 atm)

  Fe(OH)2.7Cl0.3  -14.20    -17.24   -3.04  Fe(OH)2.7Cl0.3
  Fe2(SO4)3      -103.78   -100.20    3.58  Fe2(SO4)3
  Fe3(OH)8        -16.13      4.09   20.22  Fe3(OH)8
  Ferrihydrite     -6.77     -1.88    4.89  Fe(OH)3
  FeS(ppt)        -13.02    -16.93   -3.92  FeS
  Goethite         -2.38     -1.88    0.50  FeOOH
  Greigite        -53.95    -95.07  -41.13  Fe3S4
  Halite          -46.72    -45.14    1.58  NaCl
  Hematite          0.24     -3.77   -4.01  Fe2O3
  Jarosite-H      -57.84    -69.94  -12.10  (H3O)Fe3(SO4)2(OH)6
  Jarosite-Na     -52.70    -63.90  -11.20  NaFe3(SO4)2(OH)6
  Lepidocrocite    -3.25     -1.88    1.37  FeOOH
  Mackinawite     -14.79    -16.93   -2.14  FeS
  Maghemite       -10.15     -3.77    6.39  Fe2O3
  Magnetite         0.36      4.09    3.74  Fe3O4
  Melanterite     -21.81    -24.28   -2.47  FeSO4:7H2O
  Mirabilite      -18.94    -20.06   -1.11  Na2SO4:10H2O
  NaCl            -25.14    -45.14  -20.00  NaCl
  NaNO3           -61.55    -81.55  -20.00  NaNO3
  O2(g)           -69.97     13.15   83.12  O2
  pe_fix            6.76      6.76    0.00  e-
  pH_fix          -10.05    -10.05    0.00  H+
  Pyrite          -16.67    -35.15  -18.48  FeS2
  Pyrrhotite      -13.69    -16.93   -3.25  FeS
  Sulfur          -16.11    -18.22   -2.11  S
  Thenardite      -19.88    -20.06   -0.18  Na2SO4

**For a gas, SI = log10(fugacity). Fugacity = pressure * phi / 1 atm.
  For ideal gases, phi = 1.

Reaction step 2.

Using solution 1.	PURE WATER
Using pure phase assemblage 1.	
Using reaction 1.	

Reaction 1.	

	  1.000e-12 moles of the following reaction have been added:

	                 Relative
	Reactant            moles

	Fe3S1                1.00000

	                 Relative
	Element             moles
	Fe                   3.00000
	S                    1.00000

-------------------------------Phase assemblage--------------------------------

                                                      Moles in assemblage
Phase               SI  log IAP  log K(T, P)   Initial       Final       Delta

Greigite        -47.61   -88.74    -41.13    0.000e+00           0   0.000e+00
Mackinawite     -12.97   -15.10     -2.14    0.000e+00           0   0.000e+00
NaNO3           -81.19  -101.19    -20.00    0.000e+00           0   0.000e+00
Pyrite          -13.99   -32.46    -18.48    0.000e+00           0   0.000e+00
Pyrrhotite      -11.86   -15.10     -3.25    0.000e+00           0   0.000e+00
pH_fix           -8.00    -8.00      0.00
	 HCl                is reactant       1.000e+01   1.000e+01  -1.937e-04
pe_fix            6.76     6.76      0.00
	 O2                 is reactant       1.000e+01   1.000e+01   1.172e-06

-----------------------------Solution composition------------------------------

	Elements           Molality       Moles

	Cl                1.937e-04   1.937e-04
	Fe                6.000e-12   6.000e-12
	N                 1.000e-04   1.000e-04
	Na                1.000e-04   1.000e-04
	S                 2.000e-12   2.000e-12

----------------------------Description of solution----------------------------

                                       pH  =   8.000      Charge balance
                                       pe  =  -6.760      Adjusted to redox equilibrium
                        Activity of water  =   1.000
                 Ionic strength (mol/kgw)  =   1.947e-04
                       Mass of water (kg)  =   1.000e+00
                 Total alkalinity (eq/kg)  =   6.320e-06
                         Temperature (°C)  =  25.00
                  Electrical balance (eq)  =  -1.525e-19
 Percent error, 100*(Cat-|An|)/(Cat+|An|)  =  -0.00
                               Iterations  =  15
                                  Total H  = 1.110131e+02
                                  Total O  = 5.550635e+01

----------------------------Distribution of species----------------------------

                                               Log       Log       Log    mole V
   Species          Molality    Activity  Molality  Activity     Gamma    cm³/mol

   OH-             1.021e-06   1.005e-06    -5.991    -5.998    -0.007     (0)  
   H+              1.016e-08   1.000e-08    -7.993    -8.000    -0.007      0.00
   H2O             5.551e+01   1.000e+00     1.744    -0.000     0.000     18.07
Cl            1.937e-04
   Cl-             1.937e-04   1.906e-04    -3.713    -3.720    -0.007     (0)  
   FeCl+2          5.413e-34   5.077e-34   -33.267   -33.294    -0.028     (0)  
   FeCl2+          4.392e-37   4.322e-37   -36.357   -36.364    -0.007     (0)  
   FeCl3           0.000e+00   0.000e+00   -41.084   -41.084     0.000     (0)  
Fe(2)         6.000e-12
   Fe+2            5.824e-12   5.464e-12   -11.235   -11.262    -0.028     (0)  
   FeOH+           1.756e-13   1.728e-13   -12.756   -12.762    -0.007     (0)  
   Fe(OH)2         1.471e-16   1.471e-16   -15.832   -15.832     0.000     (0)  
   Fe(OH)3-        5.552e-19   5.464e-19   -18.256   -18.262    -0.007     (0)  
   Fe(HS)2         1.013e-26   1.013e-26   -25.994   -25.994     0.000     (0)  
   Fe(HS)3-        1.617e-36   1.591e-36   -35.791   -35.798    -0.007     (0)  
   FeSO4           2.550e-37   2.550e-37   -36.593   -36.593     0.000     (0)  
Fe(3)         6.384e-21
   Fe(OH)4-        2.251e-21   2.216e-21   -20.648   -20.654    -0.007     (0)  
   Fe(OH)3         2.216e-21   2.216e-21   -20.654   -20.654     0.000     (0)  
   Fe(OH)2+        1.916e-21   1.886e-21   -20.718   -20.724    -0.007     (0)  
   FeOH+2          6.072e-26   5.696e-26   -25.217   -25.244    -0.028     (0)  
   Fe+3            1.016e-31   8.821e-32   -30.993   -31.054    -0.062     (0)  
   FeCl+2          5.413e-34   5.077e-34   -33.267   -33.294    -0.028     (0)  
   FeCl2+          4.392e-37   4.322e-37   -36.357   -36.364    -0.007     (0)  
   FeCl3           0.000e+00   0.000e+00   -41.084   -41.084     0.000     (0)  
   Fe2(OH)2+4      0.000e+00   0.000e+00   -48.947   -49.059    -0.112     (0)  
   FeSO4+          0.000e+00   0.000e+00   -54.708   -54.715    -0.007     (0)  
   Fe3(OH)4+5      0.000e+00   0.000e+00   -67.289   -67.463    -0.175     (0)  
   Fe(SO4)2-       0.000e+00   0.000e+00   -80.789   -80.796    -0.007     (0)  
H(0)          4.688e-06
   H2              2.344e-06   2.344e-06    -5.630    -5.630     0.000     (0)  
N(-3)         1.000e-04
   NH4+            9.469e-05   9.317e-05    -4.024    -4.031    -0.007     (0)  
   NH3             5.309e-06   5.309e-06    -5.275    -5.275     0.000     (0)  
   NH4SO4-         3.201e-31   3.150e-31   -30.495   -30.502    -0.007     (0)  
N(3)          0.000e+00
   NO2-            0.000e+00   0.000e+00   -71.091   -71.098    -0.007     (0)  
N(5)          0.000e+00
   NO3-            0.000e+00   0.000e+00   -97.181   -97.188    -0.007     (0)  
Na            1.000e-04
   Na+             1.000e-04   9.841e-05    -4.000    -4.007    -0.007     (0)  
   NaSO4-          1.315e-31   1.294e-31   -30.881   -30.888    -0.007     (0)  
O(0)          0.000e+00
   O2              0.000e+00   0.000e+00   -81.120   -81.120     0.000     (0)  
S(-2)         2.000e-12
   HS-             1.466e-12   1.442e-12   -11.834   -11.841    -0.007     (0)  
   H2S             1.261e-13   1.261e-13   -12.899   -12.899     0.000     (0)  
   S5-2            3.909e-14   3.665e-14   -13.408   -13.436    -0.028     (0)  
   S4-2            2.280e-14   2.138e-14   -13.642   -13.670    -0.028     (0)  
   S6-2            2.023e-14   1.897e-14   -13.694   -13.722    -0.028     (0)  
   S-2             1.857e-17   1.742e-17   -16.731   -16.759    -0.028     (0)  
   S3-2            8.036e-18   7.535e-18   -17.095   -17.123    -0.028     (0)  
   S2-2            4.561e-19   4.276e-19   -18.341   -18.369    -0.028     (0)  
   Fe(HS)2         1.013e-26   1.013e-26   -25.994   -25.994     0.000     (0)  
   Fe(HS)3-        1.617e-36   1.591e-36   -35.791   -35.798    -0.007     (0)  
S(6)          2.804e-28
   SO4-2           2.799e-28   2.625e-28   -27.553   -27.581    -0.028     (0)  
   NH4SO4-         3.201e-31   3.150e-31   -30.495   -30.502    -0.007     (0)  
   NaSO4-          1.315e-31   1.294e-31   -30.881   -30.888    -0.007     (0)  
   HSO4-           2.588e-34   2.547e-34   -33.587   -33.594    -0.007     (0)  
   FeSO4           2.550e-37   2.550e-37   -36.593   -36.593     0.000     (0)  
   FeSO4+          0.000e+00   0.000e+00   -54.708   -54.715    -0.007     (0)  
   Fe(SO4)2-       0.000e+00   0.000e+00   -80.789   -80.796    -0.007     (0)  

------------------------------Saturation indices-------------------------------

  Phase               SI** log IAP   log K(298 K,   1 atm)

  Fe(OH)2.7Cl0.3   -7.53    -10.57   -3.04  Fe(OH)2.7Cl0.3
  Fe2(SO4)3      -148.43   -144.85    3.58  Fe2(SO4)3
  Fe3(OH)8        -29.59     -9.37   20.22  Fe3(OH)8
  Ferrihydrite    -11.95     -7.05    4.89  Fe(OH)3
  FeS(ppt)        -11.19    -15.10   -3.92  FeS
  Goethite         -7.55     -7.05    0.50  FeOOH
  Greigite        -47.61    -88.74  -41.13  Fe3S4
  Halite           -9.31     -7.73    1.58  NaCl
  Hematite        -10.10    -14.11   -4.01  Fe2O3
  Jarosite-H      -96.23   -108.33  -12.10  (H3O)Fe3(SO4)2(OH)6
  Jarosite-Na     -93.13   -104.33  -11.20  NaFe3(SO4)2(OH)6
  Lepidocrocite    -8.43     -7.05    1.37  FeOOH
  Mackinawite     -12.97    -15.10   -2.14  FeS
  Maghemite       -20.49    -14.11    6.39  Fe2O3
  Magnetite       -13.11     -9.37    3.74  Fe3O4
  Melanterite     -36.37    -38.84   -2.47  FeSO4:7H2O
  Mirabilite      -34.48    -35.59   -1.11  Na2SO4:10H2O
  NaCl             12.27     -7.73  -20.00  NaCl
  NaNO3           -81.19   -101.19  -20.00  NaNO3
  O2(g)           -78.16      4.96   83.12  O2
  pe_fix            6.76      6.76    0.00  e-
  pH_fix           -8.00     -8.00    0.00  H+
  Pyrite          -13.99    -32.46  -18.48  FeS2
  Pyrrhotite      -11.86    -15.10   -3.25  FeS
  Sulfur          -15.25    -17.36   -2.11  S
  Thenardite      -35.42    -35.59   -0.18  Na2SO4

**For a gas, SI = log10(fugacity). Fugacity = pressure * phi / 1 atm.
  For ideal gases, phi = 1.

Reaction step 3.

Using solution 1.	PURE WATER
Using pure phase assemblage 1.	
Using reaction 1.	

Reaction 1.	

	  1.000e-12 moles of the following reaction have been added:

	                 Relative
	Reactant            moles

	Fe3S1                1.00000

	                 Relative
	Element             moles
	Fe                   3.00000
	S                    1.00000

-------------------------------Phase assemblage--------------------------------

                                                      Moles in assemblage
Phase               SI  log IAP  log K(T, P)   Initial       Final       Delta

Greigite        -46.37   -87.50    -41.13    0.000e+00           0   0.000e+00
Mackinawite     -12.61   -14.75     -2.14    0.000e+00           0   0.000e+00
NaNO3           -81.19  -101.19    -20.00    0.000e+00           0   0.000e+00
Pyrite          -13.46   -31.94    -18.48    0.000e+00           0   0.000e+00
Pyrrhotite      -11.51   -14.75     -3.25    0.000e+00           0   0.000e+00
pH_fix           -8.00    -8.00      0.00
	 HCl                is reactant       1.000e+01   1.000e+01  -5.098e-12
pe_fix            6.76     6.76      0.00
	 O2                 is reactant       1.000e+01   1.000e+01  -1.078e-12

-----------------------------Solution composition------------------------------

	Elements           Molality       Moles

	Cl                1.937e-04   1.937e-04
	Fe                9.000e-12   9.000e-12
	N                 1.000e-04   1.000e-04
	Na                1.000e-04   1.000e-04
	S                 3.000e-12   3.000e-12

----------------------------Description of solution----------------------------

                                       pH  =   8.000      Charge balance
                                       pe  =  -6.760      Adjusted to redox equilibrium
                        Activity of water  =   1.000
                 Ionic strength (mol/kgw)  =   1.947e-04
                       Mass of water (kg)  =   1.000e+00
                 Total alkalinity (eq/kg)  =   6.320e-06
                         Temperature (°C)  =  25.00
                  Electrical balance (eq)  =   5.258e-20
 Percent error, 100*(Cat-|An|)/(Cat+|An|)  =   0.00
                               Iterations  =   4
                                  Total H  = 1.110131e+02
                                  Total O  = 5.550635e+01

----------------------------Distribution of species----------------------------

                                               Log       Log       Log    mole V
   Species          Molality    Activity  Molality  Activity     Gamma    cm³/mol

   OH-             1.021e-06   1.005e-06    -5.991    -5.998    -0.007     (0)  
   H+              1.016e-08   1.000e-08    -7.993    -8.000    -0.007      0.00
   H2O             5.551e+01   1.000e+00     1.744    -0.000     0.000     18.07
Cl            1.937e-04
   Cl-             1.937e-04   1.906e-04    -3.713    -3.720    -0.007     (0)  
   FeCl+2          8.119e-34   7.615e-34   -33.090   -33.118    -0.028     (0)  
   FeCl2+          6.587e-37   6.483e-37   -36.181   -36.188    -0.007     (0)  
   FeCl3           0.000e+00   0.000e+00   -40.908   -40.908     0.000     (0)  
Fe(2)         9.000e-12
   Fe+2            8.736e-12   8.196e-12   -11.059   -11.086    -0.028     (0)  
   FeOH+           2.634e-13   2.592e-13   -12.579   -12.586    -0.007     (0)  
   Fe(OH)2         2.206e-16   2.206e-16   -15.656   -15.656     0.000     (0)  
   Fe(OH)3-        8.329e-19   8.196e-19   -18.079   -18.086    -0.007     (0)  
   Fe(HS)2         3.419e-26   3.419e-26   -25.466   -25.466     0.000     (0)  
   Fe(HS)3-        8.187e-36   8.056e-36   -35.087   -35.094    -0.007     (0)  
   FeSO4           5.738e-37   5.738e-37   -36.241   -36.241     0.000     (0)  
Fe(3)         9.575e-21
   Fe(OH)4-        3.377e-21   3.324e-21   -20.471   -20.478    -0.007     (0)  
   Fe(OH)3         3.324e-21   3.324e-21   -20.478   -20.478     0.000     (0)  
   Fe(OH)2+        2.875e-21   2.829e-21   -20.541   -20.548    -0.007     (0)  
   FeOH+2          9.109e-26   8.543e-26   -25.041   -25.068    -0.028     (0)  
   Fe+3            1.525e-31   1.323e-31   -30.817   -30.878    -0.062     (0)  
   FeCl+2          8.119e-34   7.615e-34   -33.090   -33.118    -0.028     (0)  
   FeCl2+          6.587e-37   6.483e-37   -36.181   -36.188    -0.007     (0)  
   FeCl3           0.000e+00   0.000e+00   -40.908   -40.908     0.000     (0)  
   Fe2(OH)2+4      0.000e+00   0.000e+00   -48.595   -48.707    -0.112     (0)  
   FeSO4+          0.000e+00   0.000e+00   -54.356   -54.363    -0.007     (0)  
   Fe3(OH)4+5      0.000e+00   0.000e+00   -66.760   -66.935    -0.175     (0)  
   Fe(SO4)2-       0.000e+00   0.000e+00   -80.261   -80.268    -0.007     (0)  
H(0)          4.688e-06
   H2              2.344e-06   2.344e-06    -5.630    -5.630     0.000     (0)  
N(-3)         1.000e-04
   NH4+            9.469e-05   9.317e-05    -4.024    -4.031    -0.007     (0)  
   NH3             5.309e-06   5.309e-06    -5.275    -5.275     0.000     (0)  
   NH4SO4-         4.802e-31   4.725e-31   -30.319   -30.326    -0.007     (0)  
N(3)          0.000e+00
   NO2-            0.000e+00   0.000e+00   -71.091   -71.098    -0.007     (0)  
N(5)          0.000e+00
   NO3-            0.000e+00   0.000e+00   -97.181   -97.188    -0.007     (0)  
Na            1.000e-04
   Na+             1.000e-04   9.841e-05    -4.000    -4.007    -0.007     (0)  
   NaSO4-          1.973e-31   1.942e-31   -30.705   -30.712    -0.007     (0)  
O(0)          0.000e+00
   O2              0.000e+00   0.000e+00   -81.120   -81.120     0.000     (0)  
S(-2)         3.000e-12
   HS-             2.199e-12   2.164e-12   -11.658   -11.665    -0.007     (0)  
   H2S             1.892e-13   1.892e-13   -12.723   -12.723     0.000     (0)  
   S5-2            5.863e-14   5.497e-14   -13.232   -13.260    -0.028     (0)  
   S4-2            3.421e-14   3.207e-14   -13.466   -13.494    -0.028     (0)  
   S6-2            3.035e-14   2.846e-14   -13.518   -13.546    -0.028     (0)  
   S-2             2.786e-17   2.613e-17   -16.555   -16.583    -0.028     (0)  
   S3-2            1.205e-17   1.130e-17   -16.919   -16.947    -0.028     (0)  
   S2-2            6.841e-19   6.415e-19   -18.165   -18.193    -0.028     (0)  
   Fe(HS)2         3.419e-26   3.419e-26   -25.466   -25.466     0.000     (0)  
   Fe(HS)3-        8.187e-36   8.056e-36   -35.087   -35.094    -0.007     (0)  
S(6)          4.205e-28
   SO4-2           4.199e-28   3.937e-28   -27.377   -27.405    -0.028     (0)  
   NH4SO4-         4.802e-31   4.725e-31   -30.319   -30.326    -0.007     (0)  
   NaSO4-          1.973e-31   1.942e-31   -30.705   -30.712    -0.007     (0)  
   HSO4-           3.882e-34   3.820e-34   -33.411   -33.418    -0.007     (0)  
   FeSO4           5.738e-37   5.738e-37   -36.241   -36.241     0.000     (0)  
   FeSO4+          0.000e+00   0.000e+00   -54.356   -54.363    -0.007     (0)  
   Fe(SO4)2-       0.000e+00   0.000e+00   -80.261   -80.268    -0.007     (0)  

------------------------------Saturation indices-------------------------------

  Phase               SI** log IAP   log K(298 K,   1 atm)

  Fe(OH)2.7Cl0.3   -7.35    -10.39   -3.04  Fe(OH)2.7Cl0.3
  Fe2(SO4)3      -147.55   -143.97    3.58  Fe2(SO4)3
  Fe3(OH)8        -29.07     -8.84   20.22  Fe3(OH)8
  Ferrihydrite    -11.77     -6.88    4.89  Fe(OH)3
  FeS(ppt)        -10.84    -14.75   -3.92  FeS
  Goethite         -7.38     -6.88    0.50  FeOOH
  Greigite        -46.37    -87.50  -41.13  Fe3S4
  Halite           -9.31     -7.73    1.58  NaCl
  Hematite         -9.75    -13.76   -4.01  Fe2O3
  Jarosite-H      -95.34   -107.44  -12.10  (H3O)Fe3(SO4)2(OH)6
  Jarosite-Na     -92.25   -103.45  -11.20  NaFe3(SO4)2(OH)6
  Lepidocrocite    -8.25     -6.88    1.37  FeOOH
  Mackinawite     -12.61    -14.75   -2.14  FeS
  Maghemite       -20.14    -13.76    6.39  Fe2O3
  Magnetite       -12.58     -8.84    3.74  Fe3O4
  Melanterite     -36.02    -38.49   -2.47  FeSO4:7H2O
  Mirabilite      -34.30    -35.42   -1.11  Na2SO4:10H2O
  NaCl             12.27     -7.73  -20.00  NaCl
  NaNO3           -81.19   -101.19  -20.00  NaNO3
  O2(g)           -78.16      4.96   83.12  O2
  pe_fix            6.76      6.76    0.00  e-
  pH_fix           -8.00     -8.00    0.00  H+
  Pyrite          -13.46    -31.94  -18.48  FeS2
  Pyrrhotite      -11.51    -14.75   -3.25  FeS
  Sulfur          -15.07    -17.18   -2.11  S
  Thenardite      -35.24    -35.42   -0.18  Na2SO4

**For a gas, SI = log10(fugacity). Fugacity = pressure * phi / 1 atm.
  For ideal gases, phi = 1.

Reaction step 4.

Using solution 1.	PURE WATER
Using pure phase assemblage 1.	
Using reaction 1.	

Reaction 1.	

	  1.000e-12 moles of the following reaction have been added:

	                 Relative
	Reactant            moles

	Fe3S1                1.00000

	                 Relative
	Element             moles
	Fe                   3.00000
	S                    1.00000

-------------------------------Phase assemblage--------------------------------

                                                      Moles in assemblage
Phase               SI  log IAP  log K(T, P)   Initial       Final       Delta

Greigite        -45.50   -86.63    -41.13    0.000e+00           0   0.000e+00
Mackinawite     -12.36   -14.50     -2.14    0.000e+00           0   0.000e+00
NaNO3           -81.19  -101.19    -20.00    0.000e+00           0   0.000e+00
Pyrite          -13.08   -31.56    -18.48    0.000e+00           0   0.000e+00
Pyrrhotite      -11.26   -14.50     -3.25    0.000e+00           0   0.000e+00
pH_fix           -8.00    -8.00      0.00
	 HCl                is reactant       1.000e+01   1.000e+01  -5.098e-12
pe_fix            6.76     6.76      0.00
	 O2                 is reactant       1.000e+01   1.000e+01  -1.087e-12

-----------------------------Solution composition------------------------------

	Elements           Molality       Moles

	Cl                1.937e-04   1.937e-04
	Fe                1.200e-11   1.200e-11
	N                 1.000e-04   1.000e-04
	Na                1.000e-04   1.000e-04
	S                 4.000e-12   4.000e-12

----------------------------Description of solution----------------------------

                                       pH  =   8.000      Charge balance
                                       pe  =  -6.760      Adjusted to redox equilibrium
                        Activity of water  =   1.000
                 Ionic strength (mol/kgw)  =   1.947e-04
                       Mass of water (kg)  =   1.000e+00
                 Total alkalinity (eq/kg)  =   6.320e-06
                         Temperature (°C)  =  25.00
                  Electrical balance (eq)  =   9.676e-20
 Percent error, 100*(Cat-|An|)/(Cat+|An|)  =   0.00
                               Iterations  =   4
                                  Total H  = 1.110131e+02
                                  Total O  = 5.550635e+01

----------------------------Distribution of species----------------------------

                                               Log       Log       Log    mole V
   Species          Molality    Activity  Molality  Activity     Gamma    cm³/mol

   OH-             1.021e-06   1.005e-06    -5.991    -5.998    -0.007     (0)  
   H+              1.016e-08   1.000e-08    -7.993    -8.000    -0.007      0.00
   H2O             5.551e+01   1.000e+00     1.744    -0.000     0.000     18.07
Cl            1.937e-04
   Cl-             1.937e-04   1.906e-04    -3.713    -3.720    -0.007     (0)  
   FeCl+2          1.083e-33   1.015e-33   -32.966   -32.993    -0.028     (0)  
   FeCl2+          8.783e-37   8.644e-37   -36.056   -36.063    -0.007     (0)  
   FeCl3           0.000e+00   0.000e+00   -40.783   -40.783     0.000     (0)  
Fe(2)         1.200e-11
   Fe+2            1.165e-11   1.093e-11   -10.934   -10.961    -0.028     (0)  
   FeOH+           3.512e-13   3.456e-13   -12.454   -12.461    -0.007     (0)  
   Fe(OH)2         2.941e-16   2.941e-16   -15.531   -15.531     0.000     (0)  
   Fe(OH)3-        1.110e-18   1.093e-18   -17.954   -17.961    -0.007     (0)  
   Fe(HS)2         8.105e-26   8.105e-26   -25.091   -25.091     0.000     (0)  
   Fe(HS)3-        2.587e-35   2.546e-35   -34.587   -34.594    -0.007     (0)  
   FeSO4           1.020e-36   1.020e-36   -35.991   -35.991     0.000     (0)  
Fe(3)         1.277e-20
   Fe(OH)4-        4.503e-21   4.432e-21   -20.347   -20.353    -0.007     (0)  
   Fe(OH)3         4.431e-21   4.432e-21   -20.353   -20.353     0.000     (0)  
   Fe(OH)2+        3.833e-21   3.772e-21   -20.416   -20.423    -0.007     (0)  
   FeOH+2          1.214e-25   1.139e-25   -24.916   -24.943    -0.028     (0)  
   Fe+3            2.033e-31   1.764e-31   -30.692   -30.753    -0.062     (0)  
   FeCl+2          1.083e-33   1.015e-33   -32.966   -32.993    -0.028     (0)  
   FeCl2+          8.783e-37   8.644e-37   -36.056   -36.063    -0.007     (0)  
   FeCl3           0.000e+00   0.000e+00   -40.783   -40.783     0.000     (0)  
   Fe2(OH)2+4      0.000e+00   0.000e+00   -48.345   -48.457    -0.112     (0)  
   FeSO4+          0.000e+00   0.000e+00   -54.106   -54.113    -0.007     (0)  
   Fe3(OH)4+5      0.000e+00   0.000e+00   -66.386   -66.560    -0.175     (0)  
   Fe(SO4)2-       0.000e+00   0.000e+00   -79.886   -79.893    -0.007     (0)  
H(0)          4.688e-06
   H2              2.344e-06   2.344e-06    -5.630    -5.630     0.000     (0)  
N(-3)         1.000e-04
   NH4+            9.469e-05   9.317e-05    -4.024    -4.031    -0.007     (0)  
   NH3             5.309e-06   5.309e-06    -5.275    -5.275     0.000     (0)  
   NH4SO4-         6.402e-31   6.300e-31   -30.194   -30.201    -0.007     (0)  
N(3)          0.000e+00
   NO2-            0.000e+00   0.000e+00   -71.091   -71.098    -0.007     (0)  
N(5)          0.000e+00
   NO3-            0.000e+00   0.000e+00   -97.181   -97.188    -0.007     (0)  
Na            1.000e-04
   Na+             1.000e-04   9.841e-05    -4.000    -4.007    -0.007     (0)  
   NaSO4-          2.631e-31   2.589e-31   -30.580   -30.587    -0.007     (0)  
O(0)          0.000e+00
   O2              0.000e+00   0.000e+00   -81.120   -81.120     0.000     (0)  
S(-2)         4.000e-12
   HS-             2.932e-12   2.885e-12   -11.533   -11.540    -0.007     (0)  
   H2S             2.522e-13   2.522e-13   -12.598   -12.598     0.000     (0)  
   S5-2            7.817e-14   7.330e-14   -13.107   -13.135    -0.028     (0)  
   S4-2            4.561e-14   4.277e-14   -13.341   -13.369    -0.028     (0)  
   S6-2            4.046e-14   3.794e-14   -13.393   -13.421    -0.028     (0)  
   S-2             3.715e-17   3.484e-17   -16.430   -16.458    -0.028     (0)  
   S3-2            1.607e-17   1.507e-17   -16.794   -16.822    -0.028     (0)  
   S2-2            9.121e-19   8.553e-19   -18.040   -18.068    -0.028     (0)  
   Fe(HS)2         8.105e-26   8.105e-26   -25.091   -25.091     0.000     (0)  
   Fe(HS)3-        2.587e-35   2.546e-35   -34.587   -34.594    -0.007     (0)  
S(6)          5.607e-28
   SO4-2           5.598e-28   5.249e-28   -27.252   -27.280    -0.028     (0)  
   NH4SO4-         6.402e-31   6.300e-31   -30.194   -30.201    -0.007     (0)  
   NaSO4-          2.631e-31   2.589e-31   -30.580   -30.587    -0.007     (0)  
   HSO4-           5.176e-34   5.094e-34   -33.286   -33.293    -0.007     (0)  
   FeSO4           1.020e-36   1.020e-36   -35.991   -35.991     0.000     (0)  
   FeSO4+          0.000e+00   0.000e+00   -54.106   -54.113    -0.007     (0)  
   Fe(SO4)2-       0.000e+00   0.000e+00   -79.886   -79.893    -0.007     (0)  

------------------------------Saturation indices-------------------------------

  Phase               SI** log IAP   log K(298 K,   1 atm)

  Fe(OH)2.7Cl0.3   -7.23    -10.27   -3.04  Fe(OH)2.7Cl0.3
  Fe2(SO4)3      -146.93   -143.35    3.58  Fe2(SO4)3
  Fe3(OH)8        -28.69     -8.47   20.22  Fe3(OH)8
  Ferrihydrite    -11.64     -6.75    4.89  Fe(OH)3
  FeS(ppt)        -10.59    -14.50   -3.92  FeS
  Goethite         -7.25     -6.75    0.50  FeOOH
  Greigite        -45.50    -86.63  -41.13  Fe3S4
  Halite           -9.31     -7.73    1.58  NaCl
  Hematite         -9.50    -13.51   -4.01  Fe2O3
  Jarosite-H      -94.72   -106.82  -12.10  (H3O)Fe3(SO4)2(OH)6
  Jarosite-Na     -91.63   -102.83  -11.20  NaFe3(SO4)2(OH)6
  Lepidocrocite    -8.12     -6.75    1.37  FeOOH
  Mackinawite     -12.36    -14.50   -2.14  FeS
  Maghemite       -19.89    -13.51    6.39  Fe2O3
  Magnetite       -12.21     -8.47    3.74  Fe3O4
  Melanterite     -35.77    -38.24   -2.47  FeSO4:7H2O
  Mirabilite      -34.18    -35.29   -1.11  Na2SO4:10H2O
  NaCl             12.27     -7.73  -20.00  NaCl
  NaNO3           -81.19   -101.19  -20.00  NaNO3
  O2(g)           -78.16      4.96   83.12  O2
  pe_fix            6.76      6.76    0.00  e-
  pH_fix           -8.00     -8.00    0.00  H+
  Pyrite          -13.08    -31.56  -18.48  FeS2
  Pyrrhotite      -11.26    -14.50   -3.25  FeS
  Sulfur          -14.95    -17.06   -2.11  S
  Thenardite      -35.11    -35.29   -0.18  Na2SO4

**For a gas, SI = log10(fugacity). Fugacity = pressure * phi / 1 atm.
  For ideal gases, phi = 1.

Reaction step 5.

Using solution 1.	PURE WATER
Using pure phase assemblage 1.	
Using reaction 1.	

Reaction 1.	

	  1.000e-12 moles of the following reaction have been added:

	                 Relative
	Reactant            moles

	Fe3S1                1.00000

	                 Relative
	Element             moles
	Fe                   3.00000
	S                    1.00000

-------------------------------Phase assemblage--------------------------------

                                                      Moles in assemblage
Phase               SI  log IAP  log K(T, P)   Initial       Final       Delta

Greigite        -44.82   -85.95    -41.13    0.000e+00           0   0.000e+00
Mackinawite     -12.17   -14.31     -2.14    0.000e+00           0   0.000e+00
NaNO3           -81.19  -101.19    -20.00    0.000e+00           0   0.000e+00
Pyrite          -12.79   -31.27    -18.48    0.000e+00           0   0.000e+00
Pyrrhotite      -11.06   -14.31     -3.25    0.000e+00           0   0.000e+00
pH_fix           -8.00    -8.00      0.00
	 HCl                is reactant       1.000e+01   1.000e+01  -5.098e-12
pe_fix            6.76     6.76      0.00
	 O2                 is reactant       1.000e+01   1.000e+01  -1.078e-12

-----------------------------Solution composition------------------------------

	Elements           Molality       Moles

	Cl                1.937e-04   1.937e-04
	Fe                1.500e-11   1.500e-11
	N                 1.000e-04   1.000e-04
	Na                1.000e-04   1.000e-04
	S                 5.000e-12   5.000e-12

----------------------------Description of solution----------------------------

                                       pH  =   8.000      Charge balance
                                       pe  =  -6.760      Adjusted to redox equilibrium
                        Activity of water  =   1.000
                 Ionic strength (mol/kgw)  =   1.947e-04
                       Mass of water (kg)  =   1.000e+00
                 Total alkalinity (eq/kg)  =   6.320e-06
                         Temperature (°C)  =  25.00
                  Electrical balance (eq)  =   1.834e-18
 Percent error, 100*(Cat-|An|)/(Cat+|An|)  =   0.00
                               Iterations  =   3
                                  Total H  = 1.110131e+02
                                  Total O  = 5.550635e+01

----------------------------Distribution of species----------------------------

                                               Log       Log       Log    mole V
   Species          Molality    Activity  Molality  Activity     Gamma    cm³/mol

   OH-             1.021e-06   1.005e-06    -5.991    -5.998    -0.007     (0)  
   H+              1.016e-08   1.000e-08    -7.993    -8.000    -0.007      0.00
   H2O             5.551e+01   1.000e+00     1.744    -0.000     0.000     18.07
Cl            1.937e-04
   Cl-             1.937e-04   1.906e-04    -3.713    -3.720    -0.007     (0)  
   FeCl+2          1.353e-33   1.269e-33   -32.869   -32.896    -0.028     (0)  
   FeCl2+          1.098e-36   1.080e-36   -35.959   -35.966    -0.007     (0)  
   FeCl3           0.000e+00   0.000e+00   -40.686   -40.686     0.000     (0)  
Fe(2)         1.500e-11
   Fe+2            1.456e-11   1.366e-11   -10.837   -10.865    -0.028     (0)  
   FeOH+           4.390e-13   4.320e-13   -12.358   -12.365    -0.007     (0)  
   Fe(OH)2         3.677e-16   3.677e-16   -15.435   -15.435     0.000     (0)  
   Fe(OH)3-        1.388e-18   1.366e-18   -17.858   -17.865    -0.007     (0)  
   Fe(HS)2         1.583e-25   1.583e-25   -24.801   -24.801     0.000     (0)  
   Fe(HS)3-        6.317e-35   6.216e-35   -34.199   -34.206    -0.007     (0)  
   FeSO4           1.594e-36   1.594e-36   -35.798   -35.798     0.000     (0)  
Fe(3)         1.596e-20
   Fe(OH)4-        5.629e-21   5.539e-21   -20.250   -20.257    -0.007     (0)  
   Fe(OH)3         5.539e-21   5.539e-21   -20.257   -20.257     0.000     (0)  
   Fe(OH)2+        4.791e-21   4.715e-21   -20.320   -20.327    -0.007     (0)  
   FeOH+2          1.518e-25   1.424e-25   -24.819   -24.847    -0.028     (0)  
   Fe+3            2.541e-31   2.205e-31   -30.595   -30.657    -0.062     (0)  
   FeCl+2          1.353e-33   1.269e-33   -32.869   -32.896    -0.028     (0)  
   FeCl2+          1.098e-36   1.080e-36   -35.959   -35.966    -0.007     (0)  
   FeCl3           0.000e+00   0.000e+00   -40.686   -40.686     0.000     (0)  
   Fe2(OH)2+4      0.000e+00   0.000e+00   -48.151   -48.263    -0.112     (0)  
   FeSO4+          0.000e+00   0.000e+00   -53.913   -53.920    -0.007     (0)  
   Fe3(OH)4+5      0.000e+00   0.000e+00   -66.095   -66.270    -0.175     (0)  
   Fe(SO4)2-       0.000e+00   0.000e+00   -79.596   -79.603    -0.007     (0)  
H(0)          4.688e-06
   H2              2.344e-06   2.344e-06    -5.630    -5.630     0.000     (0)  
N(-3)         1.000e-04
   NH4+            9.469e-05   9.317e-05    -4.024    -4.031    -0.007     (0)  
   NH3             5.309e-06   5.309e-06    -5.275    -5.275     0.000     (0)  
   NH4SO4-         8.003e-31   7.875e-31   -30.097   -30.104    -0.007     (0)  
N(3)          0.000e+00
   NO2-            0.000e+00   0.000e+00   -71.091   -71.098    -0.007     (0)  
N(5)          0.000e+00
   NO3-            0.000e+00   0.000e+00   -97.181   -97.188    -0.007     (0)  
Na            1.000e-04
   Na+             1.000e-04   9.841e-05    -4.000    -4.007    -0.007     (0)  
   NaSO4-          3.288e-31   3.236e-31   -30.483   -30.490    -0.007     (0)  
O(0)          0.000e+00
   O2              0.000e+00   0.000e+00   -81.120   -81.120     0.000     (0)  
S(-2)         5.000e-12
   HS-             3.665e-12   3.606e-12   -11.436   -11.443    -0.007     (0)  
   H2S             3.153e-13   3.153e-13   -12.501   -12.501     0.000     (0)  
   S5-2            9.772e-14   9.162e-14   -13.010   -13.038    -0.028     (0)  
   S4-2            5.701e-14   5.346e-14   -13.244   -13.272    -0.028     (0)  
   S6-2            5.058e-14   4.743e-14   -13.296   -13.324    -0.028     (0)  
   S-2             4.643e-17   4.355e-17   -16.333   -16.361    -0.028     (0)  
   S3-2            2.009e-17   1.884e-17   -16.697   -16.725    -0.028     (0)  
   S2-2            1.140e-18   1.069e-18   -17.943   -17.971    -0.028     (0)  
   Fe(HS)2         1.583e-25   1.583e-25   -24.801   -24.801     0.000     (0)  
   Fe(HS)3-        6.317e-35   6.216e-35   -34.199   -34.206    -0.007     (0)  
S(6)          7.009e-28
   SO4-2           6.998e-28   6.561e-28   -27.155   -27.183    -0.028     (0)  
   NH4SO4-         8.003e-31   7.875e-31   -30.097   -30.104    -0.007     (0)  
   NaSO4-          3.288e-31   3.236e-31   -30.483   -30.490    -0.007     (0)  
   HSO4-           6.470e-34   6.367e-34   -33.189   -33.196    -0.007     (0)  
   FeSO4           1.594e-36   1.594e-36   -35.798   -35.798     0.000     (0)  
   FeSO4+          0.000e+00   0.000e+00   -53.913   -53.920    -0.007     (0)  
   Fe(SO4)2-       0.000e+00   0.000e+00   -79.596   -79.603    -0.007     (0)  

------------------------------Saturation indices-------------------------------

  Phase               SI** log IAP   log K(298 K,   1 atm)

  Fe(OH)2.7Cl0.3   -7.13    -10.17   -3.04  Fe(OH)2.7Cl0.3
  Fe2(SO4)3      -146.44   -142.86    3.58  Fe2(SO4)3
  Fe3(OH)8        -28.40     -8.18   20.22  Fe3(OH)8
  Ferrihydrite    -11.55     -6.66    4.89  Fe(OH)3
  FeS(ppt)        -10.39    -14.31   -3.92  FeS
  Goethite         -7.16     -6.66    0.50  FeOOH
  Greigite        -44.82    -85.95  -41.13  Fe3S4
  Halite           -9.31     -7.73    1.58  NaCl
  Hematite         -9.31    -13.31   -4.01  Fe2O3
  Jarosite-H      -94.24   -106.34  -12.10  (H3O)Fe3(SO4)2(OH)6
  Jarosite-Na     -91.14   -102.34  -11.20  NaFe3(SO4)2(OH)6
  Lepidocrocite    -8.03     -6.66    1.37  FeOOH
  Mackinawite     -12.17    -14.31   -2.14  FeS
  Maghemite       -19.70    -13.31    6.39  Fe2O3
  Magnetite       -11.91     -8.18    3.74  Fe3O4
  Melanterite     -35.58    -38.05   -2.47  FeSO4:7H2O
  Mirabilite      -34.08    -35.20   -1.11  Na2SO4:10H2O
  NaCl             12.27     -7.73  -20.00  NaCl
  NaNO3           -81.19   -101.19  -20.00  NaNO3
  O2(g)           -78.16      4.96   83.12  O2
  pe_fix            6.76      6.76    0.00  e-
  pH_fix           -8.00     -8.00    0.00  H+
  Pyrite          -12.79    -31.27  -18.48  FeS2
  Pyrrhotite      -11.06    -14.31   -3.25  FeS
  Sulfur          -14.85    -16.96   -2.11  S
  Thenardite      -35.02    -35.20   -0.18  Na2SO4

**For a gas, SI = log10(fugacity). Fugacity = pressure * phi / 1 atm.
  For ideal gases, phi = 1.

Reaction step 6.

Using solution 1.	PURE WATER
Using pure phase assemblage 1.	
Using reaction 1.	

Reaction 1.	

	  1.000e-12 moles of the following reaction have been added:

	                 Relative
	Reactant            moles

	Fe3S1                1.00000

	                 Relative
	Element             moles
	Fe                   3.00000
	S                    1.00000

-------------------------------Phase assemblage--------------------------------

                                                      Moles in assemblage
Phase               SI  log IAP  log K(T, P)   Initial       Final       Delta

Greigite        -44.27   -85.40    -41.13    0.000e+00           0   0.000e+00
Mackinawite     -12.01   -14.15     -2.14    0.000e+00           0   0.000e+00
NaNO3           -81.19  -101.19    -20.00    0.000e+00           0   0.000e+00
Pyrite          -12.55   -31.03    -18.48    0.000e+00           0   0.000e+00
Pyrrhotite      -10.90   -14.15     -3.25    0.000e+00           0   0.000e+00
pH_fix           -8.00    -8.00      0.00
	 HCl                is reactant       1.000e+01   1.000e+01  -5.098e-12
pe_fix            6.76     6.76      0.00
	 O2                 is reactant       1.000e+01   1.000e+01  -1.082e-12

-----------------------------Solution composition------------------------------

	Elements           Molality       Moles

	Cl                1.937e-04   1.937e-04
	Fe                1.800e-11   1.800e-11
	N                 1.000e-04   1.000e-04
	Na                1.000e-04   1.000e-04
	S                 6.000e-12   6.000e-12

----------------------------Description of solution----------------------------

                                       pH  =   8.000      Charge balance
                                       pe  =  -6.760      Adjusted to redox equilibrium
                        Activity of water  =   1.000
                 Ionic strength (mol/kgw)  =   1.947e-04
                       Mass of water (kg)  =   1.000e+00
                 Total alkalinity (eq/kg)  =   6.320e-06
                         Temperature (°C)  =  25.00
                  Electrical balance (eq)  =   2.426e-18
 Percent error, 100*(Cat-|An|)/(Cat+|An|)  =   0.00
                               Iterations  =   3
                                  Total H  = 1.110131e+02
                                  Total O  = 5.550635e+01

----------------------------Distribution of species----------------------------

                                               Log       Log       Log    mole V
   Species          Molality    Activity  Molality  Activity     Gamma    cm³/mol

   OH-             1.021e-06   1.005e-06    -5.991    -5.998    -0.007     (0)  
   H+              1.016e-08   1.000e-08    -7.993    -8.000    -0.007      0.00
   H2O             5.551e+01   1.000e+00     1.744    -0.000     0.000     18.07
Cl            1.937e-04
   Cl-             1.937e-04   1.906e-04    -3.713    -3.720    -0.007     (0)  
   FeCl+2          1.624e-33   1.523e-33   -32.789   -32.817    -0.028     (0)  
   FeCl2+          1.317e-36   1.297e-36   -35.880   -35.887    -0.007     (0)  
   FeCl3           0.000e+00   0.000e+00   -40.607   -40.607     0.000     (0)  
Fe(2)         1.800e-11
   Fe+2            1.747e-11   1.639e-11   -10.758   -10.785    -0.028     (0)  
   FeOH+           5.268e-13   5.184e-13   -12.278   -12.285    -0.007     (0)  
   Fe(OH)2         4.412e-16   4.412e-16   -15.355   -15.355     0.000     (0)  
   Fe(OH)3-        1.666e-18   1.639e-18   -17.778   -17.785    -0.007     (0)  
   Fe(HS)2         2.735e-25   2.736e-25   -24.563   -24.563     0.000     (0)  
   Fe(HS)3-        1.310e-34   1.289e-34   -33.883   -33.890    -0.007     (0)  
   FeSO4           2.295e-36   2.295e-36   -35.639   -35.639     0.000     (0)  
Fe(3)         1.915e-20
   Fe(OH)4-        6.754e-21   6.647e-21   -20.170   -20.177    -0.007     (0)  
   Fe(OH)3         6.647e-21   6.647e-21   -20.177   -20.177     0.000     (0)  
   Fe(OH)2+        5.749e-21   5.658e-21   -20.240   -20.247    -0.007     (0)  
   FeOH+2          1.822e-25   1.709e-25   -24.740   -24.767    -0.028     (0)  
   Fe+3            3.049e-31   2.646e-31   -30.516   -30.577    -0.062     (0)  
   FeCl+2          1.624e-33   1.523e-33   -32.789   -32.817    -0.028     (0)  
   FeCl2+          1.317e-36   1.297e-36   -35.880   -35.887    -0.007     (0)  
   FeCl3           0.000e+00   0.000e+00   -40.607   -40.607     0.000     (0)  
   Fe2(OH)2+4      0.000e+00   0.000e+00   -47.993   -48.105    -0.112     (0)  
   FeSO4+          0.000e+00   0.000e+00   -53.754   -53.761    -0.007     (0)  
   Fe3(OH)4+5      0.000e+00   0.000e+00   -65.857   -66.032    -0.175     (0)  
   Fe(SO4)2-       0.000e+00   0.000e+00   -79.358   -79.365    -0.007     (0)  
H(0)          4.688e-06
   H2              2.344e-06   2.344e-06    -5.630    -5.630     0.000     (0)  
N(-3)         1.000e-04
   NH4+            9.469e-05   9.317e-05    -4.024    -4.031    -0.007     (0)  
   NH3             5.309e-06   5.309e-06    -5.275    -5.275     0.000     (0)  
   NH4SO4-         9.603e-31   9.450e-31   -30.018   -30.025    -0.007     (0)  
N(3)          0.000e+00
   NO2-            0.000e+00   0.000e+00   -71.091   -71.098    -0.007     (0)  
N(5)          0.000e+00
   NO3-            0.000e+00   0.000e+00   -97.181   -97.188    -0.007     (0)  
Na            1.000e-04
   Na+             1.000e-04   9.841e-05    -4.000    -4.007    -0.007     (0)  
   NaSO4-          3.946e-31   3.883e-31   -30.404   -30.411    -0.007     (0)  
O(0)          0.000e+00
   O2              0.000e+00   0.000e+00   -81.120   -81.120     0.000     (0)  
S(-2)         6.000e-12
   HS-             4.397e-12   4.327e-12   -11.357   -11.364    -0.007     (0)  
   H2S             3.783e-13   3.783e-13   -12.422   -12.422     0.000     (0)  
   S5-2            1.173e-13   1.099e-13   -12.931   -12.959    -0.028     (0)  
   S4-2            6.841e-14   6.415e-14   -13.165   -13.193    -0.028     (0)  
   S6-2            6.069e-14   5.691e-14   -13.217   -13.245    -0.028     (0)  
   S-2             5.572e-17   5.226e-17   -16.254   -16.282    -0.028     (0)  
   S3-2            2.411e-17   2.260e-17   -16.618   -16.646    -0.028     (0)  
   S2-2            1.368e-18   1.283e-18   -17.864   -17.892    -0.028     (0)  
   Fe(HS)2         2.735e-25   2.736e-25   -24.563   -24.563     0.000     (0)  
   Fe(HS)3-        1.310e-34   1.289e-34   -33.883   -33.890    -0.007     (0)  
S(6)          8.411e-28
   SO4-2           8.397e-28   7.874e-28   -27.076   -27.104    -0.028     (0)  
   NH4SO4-         9.603e-31   9.450e-31   -30.018   -30.025    -0.007     (0)  
   NaSO4-          3.946e-31   3.883e-31   -30.404   -30.411    -0.007     (0)  
   HSO4-           7.764e-34   7.641e-34   -33.110   -33.117    -0.007     (0)  
   FeSO4           2.295e-36   2.295e-36   -35.639   -35.639     0.000     (0)  
   FeSO4+          0.000e+00   0.000e+00   -53.754   -53.761    -0.007     (0)  
   Fe(SO4)2-       0.000e+00   0.000e+00   -79.358   -79.365    -0.007     (0)  

------------------------------Saturation indices-------------------------------

  Phase               SI** log IAP   log K(298 K,   1 atm)

  Fe(OH)2.7Cl0.3   -7.05    -10.09   -3.04  Fe(OH)2.7Cl0.3
  Fe2(SO4)3      -146.05   -142.47    3.58  Fe2(SO4)3
  Fe3(OH)8        -28.16     -7.94   20.22  Fe3(OH)8
  Ferrihydrite    -11.47     -6.58    4.89  Fe(OH)3
  FeS(ppt)        -10.23    -14.15   -3.92  FeS
  Goethite         -7.08     -6.58    0.50  FeOOH
  Greigite        -44.27    -85.40  -41.13  Fe3S4
  Halite           -9.31     -7.73    1.58  NaCl
  Hematite         -9.15    -13.15   -4.01  Fe2O3
  Jarosite-H      -93.84   -105.94  -12.10  (H3O)Fe3(SO4)2(OH)6
  Jarosite-Na     -90.75   -101.95  -11.20  NaFe3(SO4)2(OH)6
  Lepidocrocite    -7.95     -6.58    1.37  FeOOH
  Mackinawite     -12.01    -14.15   -2.14  FeS
  Maghemite       -19.54    -13.15    6.39  Fe2O3
  Magnetite       -11.68     -7.94    3.74  Fe3O4
  Melanterite     -35.42    -37.89   -2.47  FeSO4:7H2O
  Mirabilite      -34.00    -35.12   -1.11  Na2SO4:10H2O
  NaCl             12.27     -7.73  -20.00  NaCl
  NaNO3           -81.19   -101.19  -20.00  NaNO3
  O2(g)           -78.16      4.96   83.12  O2
  pe_fix            6.76      6.76    0.00  e-
  pH_fix           -8.00     -8.00    0.00  H+
  Pyrite          -12.55    -31.03  -18.48  FeS2
  Pyrrhotite      -10.90    -14.15   -3.25  FeS
  Sulfur          -14.77    -16.88   -2.11  S
  Thenardite      -34.94    -35.12   -0.18  Na2SO4

**For a gas, SI = log10(fugacity). Fugacity = pressure * phi / 1 atm.
  For ideal gases, phi = 1.

Reaction step 7.

Using solution 1.	PURE WATER
Using pure phase assemblage 1.	
Using reaction 1.	

Reaction 1.	

	  1.000e-12 moles of the following reaction have been added:

	                 Relative
	Reactant            moles

	Fe3S1                1.00000

	                 Relative
	Element             moles
	Fe                   3.00000
	S                    1.00000

-------------------------------Phase assemblage--------------------------------

                                                      Moles in assemblage
Phase               SI  log IAP  log K(T, P)   Initial       Final       Delta

Greigite        -43.80   -84.93    -41.13    0.000e+00           0   0.000e+00
Mackinawite     -11.88   -14.02     -2.14    0.000e+00           0   0.000e+00
NaNO3           -81.19  -101.19    -20.00    0.000e+00           0   0.000e+00
Pyrite          -12.35   -30.83    -18.48    0.000e+00           0   0.000e+00
Pyrrhotite      -10.77   -14.02     -3.25    0.000e+00           0   0.000e+00
pH_fix           -8.00    -8.00      0.00
	 HCl                is reactant       1.000e+01   1.000e+01  -5.098e-12
pe_fix            6.76     6.76      0.00
	 O2                 is reactant       1.000e+01   1.000e+01  -1.080e-12

-----------------------------Solution composition------------------------------

	Elements           Molality       Moles

	Cl                1.937e-04   1.937e-04
	Fe                2.100e-11   2.100e-11
	N                 1.000e-04   1.000e-04
	Na                1.000e-04   1.000e-04
	S                 7.000e-12   7.000e-12

----------------------------Description of solution----------------------------

                                       pH  =   8.000      Charge balance
                                       pe  =  -6.760      Adjusted to redox equilibrium
                        Activity of water  =   1.000
                 Ionic strength (mol/kgw)  =   1.947e-04
                       Mass of water (kg)  =   1.000e+00
                 Total alkalinity (eq/kg)  =   6.320e-06
                         Temperature (°C)  =  25.00
                  Electrical balance (eq)  =   2.709e-18
 Percent error, 100*(Cat-|An|)/(Cat+|An|)  =   0.00
                               Iterations  =   3
                                  Total H  = 1.110131e+02
                                  Total O  = 5.550635e+01

----------------------------Distribution of species----------------------------

                                               Log       Log       Log    mole V
   Species          Molality    Activity  Molality  Activity     Gamma    cm³/mol

   OH-             1.021e-06   1.005e-06    -5.991    -5.998    -0.007     (0)  
   H+              1.016e-08   1.000e-08    -7.993    -8.000    -0.007      0.00
   H2O             5.551e+01   1.000e+00     1.744    -0.000     0.000     18.07
Cl            1.937e-04
   Cl-             1.937e-04   1.906e-04    -3.713    -3.720    -0.007     (0)  
   FeCl+2          1.895e-33   1.777e-33   -32.723   -32.750    -0.028     (0)  
   FeCl2+          1.537e-36   1.513e-36   -35.813   -35.820    -0.007     (0)  
   FeCl3           0.000e+00   0.000e+00   -40.540   -40.540     0.000     (0)  
Fe(2)         2.100e-11
   Fe+2            2.038e-11   1.913e-11   -10.691   -10.718    -0.028     (0)  
   FeOH+           6.146e-13   6.048e-13   -12.211   -12.218    -0.007     (0)  
   Fe(OH)2         5.147e-16   5.148e-16   -15.288   -15.288     0.000     (0)  
   Fe(OH)3-        1.943e-18   1.912e-18   -17.711   -17.718    -0.007     (0)  
   Fe(HS)2         4.344e-25   4.344e-25   -24.362   -24.362     0.000     (0)  
   Fe(HS)3-        2.427e-34   2.388e-34   -33.615   -33.622    -0.007     (0)  
   FeSO4           3.124e-36   3.124e-36   -35.505   -35.505     0.000     (0)  
Fe(3)         2.234e-20
   Fe(OH)4-        7.880e-21   7.755e-21   -20.103   -20.110    -0.007     (0)  
   Fe(OH)3         7.755e-21   7.755e-21   -20.110   -20.110     0.000     (0)  
   Fe(OH)2+        6.707e-21   6.601e-21   -20.173   -20.180    -0.007     (0)  
   FeOH+2          2.125e-25   1.993e-25   -24.673   -24.700    -0.028     (0)  
   Fe+3            3.557e-31   3.087e-31   -30.449   -30.510    -0.062     (0)  
   FeCl+2          1.895e-33   1.777e-33   -32.723   -32.750    -0.028     (0)  
   FeCl2+          1.537e-36   1.513e-36   -35.813   -35.820    -0.007     (0)  
   FeCl3           0.000e+00   0.000e+00   -40.540   -40.540     0.000     (0)  
   Fe2(OH)2+4      0.000e+00   0.000e+00   -47.859   -47.971    -0.112     (0)  
   FeSO4+          0.000e+00   0.000e+00   -53.620   -53.627    -0.007     (0)  
   Fe3(OH)4+5      0.000e+00   0.000e+00   -65.656   -65.831    -0.175     (0)  
   Fe(SO4)2-       0.000e+00   0.000e+00   -79.157   -79.164    -0.007     (0)  
H(0)          4.688e-06
   H2              2.344e-06   2.344e-06    -5.630    -5.630     0.000     (0)  
N(-3)         1.000e-04
   NH4+            9.469e-05   9.317e-05    -4.024    -4.031    -0.007     (0)  
   NH3             5.309e-06   5.309e-06    -5.275    -5.275     0.000     (0)  
   NH4SO4-         1.120e-30   1.103e-30   -29.951   -29.958    -0.007     (0)  
N(3)          0.000e+00
   NO2-            0.000e+00   0.000e+00   -71.091   -71.098    -0.007     (0)  
N(5)          0.000e+00
   NO3-            0.000e+00   0.000e+00   -97.181   -97.188    -0.007     (0)  
Na            1.000e-04
   Na+             1.000e-04   9.841e-05    -4.000    -4.007    -0.007     (0)  
   NaSO4-          4.604e-31   4.531e-31   -30.337   -30.344    -0.007     (0)  
O(0)          0.000e+00
   O2              0.000e+00   0.000e+00   -81.120   -81.120     0.000     (0)  
S(-2)         7.000e-12
   HS-             5.130e-12   5.048e-12   -11.290   -11.297    -0.007     (0)  
   H2S             4.414e-13   4.414e-13   -12.355   -12.355     0.000     (0)  
   S5-2            1.368e-13   1.283e-13   -12.864   -12.892    -0.028     (0)  
   S4-2            7.982e-14   7.484e-14   -13.098   -13.126    -0.028     (0)  
   S6-2            7.081e-14   6.640e-14   -13.150   -13.178    -0.028     (0)  
   S-2             6.501e-17   6.097e-17   -16.187   -16.215    -0.028     (0)  
   S3-2            2.813e-17   2.637e-17   -16.551   -16.579    -0.028     (0)  
   S2-2            1.596e-18   1.497e-18   -17.797   -17.825    -0.028     (0)  
   Fe(HS)2         4.344e-25   4.344e-25   -24.362   -24.362     0.000     (0)  
   Fe(HS)3-        2.427e-34   2.388e-34   -33.615   -33.622    -0.007     (0)  
S(6)          9.813e-28
   SO4-2           9.797e-28   9.186e-28   -27.009   -27.037    -0.028     (0)  
   NH4SO4-         1.120e-30   1.103e-30   -29.951   -29.958    -0.007     (0)  
   NaSO4-          4.604e-31   4.531e-31   -30.337   -30.344    -0.007     (0)  
   HSO4-           9.058e-34   8.914e-34   -33.043   -33.050    -0.007     (0)  
   FeSO4           3.124e-36   3.124e-36   -35.505   -35.505     0.000     (0)  
   FeSO4+          0.000e+00   0.000e+00   -53.620   -53.627    -0.007     (0)  
   Fe(SO4)2-       0.000e+00   0.000e+00   -79.157   -79.164    -0.007     (0)  

------------------------------Saturation indices-------------------------------

  Phase               SI** log IAP   log K(298 K,   1 atm)

  Fe(OH)2.7Cl0.3   -6.99    -10.03   -3.04  Fe(OH)2.7Cl0.3
  Fe2(SO4)3      -145.71   -142.13    3.58  Fe2(SO4)3
  Fe3(OH)8        -27.96     -7.74   20.22  Fe3(OH)8
  Ferrihydrite    -11.40     -6.51    4.89  Fe(OH)3
  FeS(ppt)        -10.10    -14.02   -3.92  FeS
  Goethite         -7.01     -6.51    0.50  FeOOH
  Greigite        -43.80    -84.93  -41.13  Fe3S4
  Halite           -9.31     -7.73    1.58  NaCl
  Hematite         -9.01    -13.02   -4.01  Fe2O3
  Jarosite-H      -93.50   -105.60  -12.10  (H3O)Fe3(SO4)2(OH)6
  Jarosite-Na     -90.41   -101.61  -11.20  NaFe3(SO4)2(OH)6
  Lepidocrocite    -7.88     -6.51    1.37  FeOOH
  Mackinawite     -11.88    -14.02   -2.14  FeS
  Maghemite       -19.41    -13.02    6.39  Fe2O3
  Magnetite       -11.48     -7.74    3.74  Fe3O4
  Melanterite     -35.29    -37.76   -2.47  FeSO4:7H2O
  Mirabilite      -33.94    -35.05   -1.11  Na2SO4:10H2O
  NaCl             12.27     -7.73  -20.00  NaCl
  NaNO3           -81.19   -101.19  -20.00  NaNO3
  O2(g)           -78.16      4.96   83.12  O2
  pe_fix            6.76      6.76    0.00  e-
  pH_fix           -8.00     -8.00    0.00  H+
  Pyrite          -12.35    -30.83  -18.48  FeS2
  Pyrrhotite      -10.77    -14.02   -3.25  FeS
  Sulfur          -14.71    -16.82   -2.11  S
  Thenardite      -34.87    -35.05   -0.18  Na2SO4

**For a gas, SI = log10(fugacity). Fugacity = pressure * phi / 1 atm.
  For ideal gases, phi = 1.

Reaction step 8.

Using solution 1.	PURE WATER
Using pure phase assemblage 1.	
Using reaction 1.	

Reaction 1.	

	  1.000e-12 moles of the following reaction have been added:

	                 Relative
	Reactant            moles

	Fe3S1                1.00000

	                 Relative
	Element             moles
	Fe                   3.00000
	S                    1.00000

-------------------------------Phase assemblage--------------------------------

                                                      Moles in assemblage
Phase               SI  log IAP  log K(T, P)   Initial       Final       Delta

Greigite        -43.39   -84.52    -41.13    0.000e+00           0   0.000e+00
Mackinawite     -11.76   -13.90     -2.14    0.000e+00           0   0.000e+00
NaNO3           -81.19  -101.19    -20.00    0.000e+00           0   0.000e+00
Pyrite          -12.18   -30.66    -18.48    0.000e+00           0   0.000e+00
Pyrrhotite      -10.65   -13.90     -3.25    0.000e+00           0   0.000e+00
pH_fix           -8.00    -8.00      0.00
	 HCl                is reactant       1.000e+01   1.000e+01  -5.098e-12
pe_fix            6.76     6.76      0.00
	 O2                 is reactant       1.000e+01   1.000e+01  -1.078e-12

-----------------------------Solution composition------------------------------

	Elements           Molality       Moles

	Cl                1.937e-04   1.937e-04
	Fe                2.400e-11   2.400e-11
	N                 1.000e-04   1.000e-04
	Na                1.000e-04   1.000e-04
	S                 8.000e-12   8.000e-12

----------------------------Description of solution----------------------------

                                       pH  =   8.000      Charge balance
                                       pe  =  -6.760      Adjusted to redox equilibrium
                        Activity of water  =   1.000
                 Ionic strength (mol/kgw)  =   1.947e-04
                       Mass of water (kg)  =   1.000e+00
                 Total alkalinity (eq/kg)  =   6.320e-06
                         Temperature (°C)  =  25.00
                  Electrical balance (eq)  =   2.658e-18
 Percent error, 100*(Cat-|An|)/(Cat+|An|)  =   0.00
                               Iterations  =   3
                                  Total H  = 1.110131e+02
                                  Total O  = 5.550635e+01

----------------------------Distribution of species----------------------------

                                               Log       Log       Log    mole V
   Species          Molality    Activity  Molality  Activity     Gamma    cm³/mol

   OH-             1.021e-06   1.005e-06    -5.991    -5.998    -0.007     (0)  
   H+              1.016e-08   1.000e-08    -7.993    -8.000    -0.007      0.00
   H2O             5.551e+01   1.000e+00     1.744    -0.000     0.000     18.07
Cl            1.937e-04
   Cl-             1.937e-04   1.906e-04    -3.713    -3.720    -0.007     (0)  
   FeCl+2          2.165e-33   2.031e-33   -32.665   -32.692    -0.028     (0)  
   FeCl2+          1.757e-36   1.729e-36   -35.755   -35.762    -0.007     (0)  
   FeCl3           0.000e+00   0.000e+00   -40.482   -40.482     0.000     (0)  
Fe(2)         2.400e-11
   Fe+2            2.330e-11   2.186e-11   -10.633   -10.660    -0.028     (0)  
   FeOH+           7.023e-13   6.912e-13   -12.153   -12.160    -0.007     (0)  
   Fe(OH)2         5.883e-16   5.883e-16   -15.230   -15.230     0.000     (0)  
   Fe(OH)3-        2.221e-18   2.186e-18   -17.653   -17.660    -0.007     (0)  
   Fe(HS)2         6.484e-25   6.484e-25   -24.188   -24.188     0.000     (0)  
   Fe(HS)3-        4.140e-34   4.074e-34   -33.383   -33.390    -0.007     (0)  
   FeSO4           4.080e-36   4.081e-36   -35.389   -35.389     0.000     (0)  
Fe(3)         2.553e-20
   Fe(OH)4-        9.006e-21   8.863e-21   -20.045   -20.052    -0.007     (0)  
   Fe(OH)3         8.863e-21   8.863e-21   -20.052   -20.052     0.000     (0)  
   Fe(OH)2+        7.665e-21   7.544e-21   -20.115   -20.122    -0.007     (0)  
   FeOH+2          2.429e-25   2.278e-25   -24.615   -24.642    -0.028     (0)  
   Fe+3            4.065e-31   3.529e-31   -30.391   -30.452    -0.062     (0)  
   FeCl+2          2.165e-33   2.031e-33   -32.665   -32.692    -0.028     (0)  
   FeCl2+          1.757e-36   1.729e-36   -35.755   -35.762    -0.007     (0)  
   FeCl3           0.000e+00   0.000e+00   -40.482   -40.482     0.000     (0)  
   Fe2(OH)2+4      0.000e+00   0.000e+00   -47.743   -47.855    -0.112     (0)  
   FeSO4+          0.000e+00   0.000e+00   -53.504   -53.511    -0.007     (0)  
   Fe3(OH)4+5      0.000e+00   0.000e+00   -65.483   -65.657    -0.175     (0)  
   Fe(SO4)2-       0.000e+00   0.000e+00   -78.983   -78.990    -0.007     (0)  
H(0)          4.688e-06
   H2              2.344e-06   2.344e-06    -5.630    -5.630     0.000     (0)  
N(-3)         1.000e-04
   NH4+            9.469e-05   9.317e-05    -4.024    -4.031    -0.007     (0)  
   NH3             5.309e-06   5.309e-06    -5.275    -5.275     0.000     (0)  
   NH4SO4-         1.280e-30   1.260e-30   -29.893   -29.900    -0.007     (0)  
N(3)          0.000e+00
   NO2-            0.000e+00   0.000e+00   -71.091   -71.098    -0.007     (0)  
N(5)          0.000e+00
   NO3-            0.000e+00   0.000e+00   -97.181   -97.188    -0.007     (0)  
Na            1.000e-04
   Na+             1.000e-04   9.841e-05    -4.000    -4.007    -0.007     (0)  
   NaSO4-          5.261e-31   5.178e-31   -30.279   -30.286    -0.007     (0)  
O(0)          0.000e+00
   O2              0.000e+00   0.000e+00   -81.120   -81.120     0.000     (0)  
S(-2)         8.000e-12
   HS-             5.863e-12   5.769e-12   -11.232   -11.239    -0.007     (0)  
   H2S             5.044e-13   5.044e-13   -12.297   -12.297     0.000     (0)  
   S5-2            1.563e-13   1.466e-13   -12.806   -12.834    -0.028     (0)  
   S4-2            9.122e-14   8.553e-14   -13.040   -13.068    -0.028     (0)  
   S6-2            8.093e-14   7.588e-14   -13.092   -13.120    -0.028     (0)  
   S-2             7.430e-17   6.968e-17   -16.129   -16.157    -0.028     (0)  
   S3-2            3.214e-17   3.014e-17   -16.493   -16.521    -0.028     (0)  
   S2-2            1.824e-18   1.711e-18   -17.739   -17.767    -0.028     (0)  
   Fe(HS)2         6.484e-25   6.484e-25   -24.188   -24.188     0.000     (0)  
   Fe(HS)3-        4.140e-34   4.074e-34   -33.383   -33.390    -0.007     (0)  
S(6)          1.121e-27
   SO4-2           1.120e-27   1.050e-27   -26.951   -26.979    -0.028     (0)  
   NH4SO4-         1.280e-30   1.260e-30   -29.893   -29.900    -0.007     (0)  
   NaSO4-          5.261e-31   5.178e-31   -30.279   -30.286    -0.007     (0)  
   HSO4-           1.035e-33   1.019e-33   -32.985   -32.992    -0.007     (0)  
   FeSO4           4.080e-36   4.081e-36   -35.389   -35.389     0.000     (0)  
   FeSO4+          0.000e+00   0.000e+00   -53.504   -53.511    -0.007     (0)  
   Fe(SO4)2-       0.000e+00   0.000e+00   -78.983   -78.990    -0.007     (0)  

------------------------------Saturation indices-------------------------------

  Phase               SI** log IAP   log K(298 K,   1 atm)

  Fe(OH)2.7Cl0.3   -6.93     -9.97   -3.04  Fe(OH)2.7Cl0.3
  Fe2(SO4)3      -145.42   -141.84    3.58  Fe2(SO4)3
  Fe3(OH)8        -27.79     -7.57   20.22  Fe3(OH)8
  Ferrihydrite    -11.34     -6.45    4.89  Fe(OH)3
  FeS(ppt)         -9.98    -13.90   -3.92  FeS
  Goethite         -6.95     -6.45    0.50  FeOOH
  Greigite        -43.39    -84.52  -41.13  Fe3S4
  Halite           -9.31     -7.73    1.58  NaCl
  Hematite         -8.90    -12.90   -4.01  Fe2O3
  Jarosite-H      -93.21   -105.31  -12.10  (H3O)Fe3(SO4)2(OH)6
  Jarosite-Na     -90.12   -101.32  -11.20  NaFe3(SO4)2(OH)6
  Lepidocrocite    -7.82     -6.45    1.37  FeOOH
  Mackinawite     -11.76    -13.90   -2.14  FeS
  Maghemite       -19.29    -12.90    6.39  Fe2O3
  Magnetite       -11.30     -7.57    3.74  Fe3O4
  Melanterite     -35.17    -37.64   -2.47  FeSO4:7H2O
  Mirabilite      -33.88    -34.99   -1.11  Na2SO4:10H2O
  NaCl             12.27     -7.73  -20.00  NaCl
  NaNO3           -81.19   -101.19  -20.00  NaNO3
  O2(g)           -78.16      4.96   83.12  O2
  pe_fix            6.76      6.76    0.00  e-
  pH_fix           -8.00     -8.00    0.00  H+
  Pyrite          -12.18    -30.66  -18.48  FeS2
  Pyrrhotite      -10.65    -13.90   -3.25  FeS
  Sulfur          -14.65    -16.76   -2.11  S
  Thenardite      -34.81    -34.99   -0.18  Na2SO4

**For a gas, SI = log10(fugacity). Fugacity = pressure * phi / 1 atm.
  For ideal gases, phi = 1.

Reaction step 9.

Using solution 1.	PURE WATER
Using pure phase assemblage 1.	
Using reaction 1.	

Reaction 1.	

	  1.000e-12 moles of the following reaction have been added:

	                 Relative
	Reactant            moles

	Fe3S1                1.00000

	                 Relative
	Element             moles
	Fe                   3.00000
	S                    1.00000

-------------------------------Phase assemblage--------------------------------

                                                      Moles in assemblage
Phase               SI  log IAP  log K(T, P)   Initial       Final       Delta

Greigite        -43.03   -84.16    -41.13    0.000e+00           0   0.000e+00
Mackinawite     -11.66   -13.80     -2.14    0.000e+00           0   0.000e+00
NaNO3           -81.19  -101.19    -20.00    0.000e+00           0   0.000e+00
Pyrite          -12.03   -30.50    -18.48    0.000e+00           0   0.000e+00
Pyrrhotite      -10.55   -13.80     -3.25    0.000e+00           0   0.000e+00
pH_fix           -8.00    -8.00      0.00
	 HCl                is reactant       1.000e+01   1.000e+01  -5.098e-12
pe_fix            6.76     6.76      0.00
	 O2                 is reactant       1.000e+01   1.000e+01  -1.085e-12

-----------------------------Solution composition------------------------------

	Elements           Molality       Moles

	Cl                1.937e-04   1.937e-04
	Fe                2.700e-11   2.700e-11
	N                 1.000e-04   1.000e-04
	Na                1.000e-04   1.000e-04
	S                 9.000e-12   9.000e-12

----------------------------Description of solution----------------------------

                                       pH  =   8.000      Charge balance
                                       pe  =  -6.760      Adjusted to redox equilibrium
                        Activity of water  =   1.000
                 Ionic strength (mol/kgw)  =   1.947e-04
                       Mass of water (kg)  =   1.000e+00
                 Total alkalinity (eq/kg)  =   6.320e-06
                         Temperature (°C)  =  25.00
                  Electrical balance (eq)  =   2.685e-18
 Percent error, 100*(Cat-|An|)/(Cat+|An|)  =   0.00
                               Iterations  =   3
                                  Total H  = 1.110131e+02
                                  Total O  = 5.550635e+01

----------------------------Distribution of species----------------------------

                                               Log       Log       Log    mole V
   Species          Molality    Activity  Molality  Activity     Gamma    cm³/mol

   OH-             1.021e-06   1.005e-06    -5.991    -5.998    -0.007     (0)  
   H+              1.016e-08   1.000e-08    -7.993    -8.000    -0.007      0.00
[...]
   NaSO4-          1.169e-29   8.035e-30   -28.932   -29.095    -0.163     (0)  
   HSO4-           3.336e-32   2.206e-32   -31.477   -31.656    -0.180     (0)  
   FeSO4+          0.000e+00   0.000e+00   -42.704   -42.874    -0.170     (0)  
   Fe(SO4)2-       0.000e+00   0.000e+00   -66.884   -67.017    -0.133     (0)  

------------------------------Saturation indices-------------------------------

  Phase               SI** log IAP   log K(298 K,   1 atm)

  Fe(OH)2.7Cl0.3    3.28      0.24   -3.04  Fe(OH)2.7Cl0.3
  Fe2(SO4)3      -122.81   -119.23    3.58  Fe2(SO4)3
  Fe3(OH)8          0.09     20.31   20.22  Fe3(OH)8
  Ferrihydrite     -2.05      2.84    4.89  Fe(OH)3
  FeS(ppt)          0.67     -3.25   -3.92  FeS
  Goethite          2.34      2.84    0.50  FeOOH
  Greigite        -10.08    -51.21  -41.13  Fe3S4
  Halite           -6.38     -4.80    1.58  NaCl
  Hematite          9.70      5.69   -4.01  Fe2O3
  Jarosite-H      -62.67    -74.77  -12.10  (H3O)Fe3(SO4)2(OH)6
  Jarosite-Na     -59.71    -70.91  -11.20  NaFe3(SO4)2(OH)6
  Lepidocrocite     1.47      2.84    1.37  FeOOH
  Mackinawite      -1.11     -3.25   -2.14  FeS
  Maghemite        -0.70      5.69    6.39  Fe2O3
  Magnetite        16.59     20.33    3.74  Fe3O4
  Melanterite     -24.56    -27.03   -2.47  FeSO4:7H2O
  Mirabilite      -32.87    -33.99   -1.11  Na2SO4:10H2O
  NaCl             15.20     -4.80  -20.00  NaCl
  NaNO3           -81.57   -101.57  -20.00  NaNO3
  O2(g)           -78.17      4.95   83.12  O2
  pe_fix            6.76      6.76    0.00  e-
  pH_fix           -8.00     -8.00    0.00  H+
  Pyrite           -0.17    -18.65  -18.48  FeS2
  Pyrrhotite        0.00     -3.25   -3.25  FeS
  Sulfur          -13.30    -15.41   -2.11  S
  Thenardite      -33.77    -33.95   -0.18  Na2SO4

**For a gas, SI = log10(fugacity). Fugacity = pressure * phi / 1 atm.
  For ideal gases, phi = 1.

Reaction step 109.

WARNING: pe_fix, Pure phase with add formula has not converged.
	 SI may be a local minimum.	Residual: 2.372623e-01

Using solution 1.	PURE WATER
Using pure phase assemblage 1.	
Using reaction 1.	

Reaction 1.	

	  1.000e-02 moles of the following reaction have been added:

	                 Relative
	Reactant            moles

	Fe3S1                1.00000

	                 Relative
	Element             moles
	Fe                   3.00000
	S                    1.00000

-------------------------------Phase assemblage--------------------------------

                                                      Moles in assemblage
Phase               SI  log IAP  log K(T, P)   Initial       Final       Delta

Greigite         -9.91   -51.03    -41.13    0.000e+00           0   0.000e+00
Mackinawite      -1.11    -3.25     -2.14    0.000e+00           0   0.000e+00
NaNO3           -80.75  -100.75    -20.00    0.000e+00           0   0.000e+00
Pyrite            0.00   -18.48    -18.48    0.000e+00           0   0.000e+00
Pyrrhotite        0.00    -3.25     -3.25    9.111e-02   1.011e-01   1.000e-02
pH_fix           -8.00    -8.00      0.00
	 HCl                is reactant       9.637e+00   9.598e+00  -3.982e-02
pe_fix            6.66     6.66      0.00
	 O2                 is reactant       9.909e+00   9.899e+00  -1.000e-02

-----------------------------Solution composition------------------------------

	Elements           Molality       Moles

	Cl                4.010e-01   4.024e-01
	Fe                2.015e-01   2.022e-01
	N                 9.964e-05   1.000e-04
	Na                9.964e-05   1.000e-04
	S                 3.115e-10   3.126e-10

----------------------------Description of solution----------------------------

                                       pH  =   8.000      Charge balance
                                       pe  =  -6.657      Adjusted to redox equilibrium
                        Activity of water  =   0.990
                 Ionic strength (mol/kgw)  =   6.003e-01
                       Mass of water (kg)  =   1.004e+00
                 Total alkalinity (eq/kg)  =   2.212e-03
                         Temperature (°C)  =  25.00
                  Electrical balance (eq)  =  -8.934e-10
 Percent error, 100*(Cat-|An|)/(Cat+|An|)  =  -0.00
                               Iterations  =   6
                                  Total H  = 1.114153e+02
                                  Total O  = 5.570857e+01

----------------------------Distribution of species----------------------------

                                               Log       Log       Log    mole V
   Species          Molality    Activity  Molality  Activity     Gamma    cm³/mol

   OH-             1.609e-06   9.943e-07    -5.793    -6.002    -0.209     (0)  
   H+              1.319e-08   1.000e-08    -7.880    -8.000    -0.120      0.00
   H2O             5.551e+01   9.898e-01     1.744    -0.004     0.000     18.07
Cl            4.010e-01
   Cl-             4.010e-01   2.444e-01    -0.397    -0.612    -0.215     (0)  
   FeCl+2          3.537e-20   7.130e-21   -19.451   -20.147    -0.696     (0)  
   FeCl2+          1.162e-20   7.783e-21   -19.935   -20.109    -0.174     (0)  
   FeCl3           1.656e-22   1.902e-22   -21.781   -21.721     0.060     (0)  
Fe(2)         2.015e-01
   Fe+2            1.993e-01   4.721e-02    -0.701    -1.326    -0.625     (0)  
   FeOH+           2.205e-03   1.478e-03    -2.657    -2.830    -0.174     (0)  
   Fe(OH)2         1.084e-06   1.245e-06    -5.965    -5.905     0.060     (0)  
   Fe(OH)3-        6.831e-09   4.577e-09    -8.166    -8.339    -0.174     (0)  
   Fe(HS)2         5.307e-13   6.094e-13   -12.275   -12.215     0.060     (0)  
   Fe(HS)3-        1.079e-20   7.987e-21   -19.967   -20.098    -0.131     (0)  
   FeSO4           1.025e-24   1.177e-24   -23.989   -23.929     0.060     (0)  
Fe(3)         8.435e-11
   Fe(OH)4-        3.417e-11   2.329e-11   -10.466   -10.633    -0.166     (0)  
   Fe(OH)2+        2.968e-11   2.023e-11   -10.527   -10.694    -0.166     (0)  
   Fe(OH)3         2.049e-11   2.353e-11   -10.688   -10.628     0.060     (0)  
   FeOH+2          3.063e-15   6.174e-16   -14.514   -15.209    -0.696     (0)  
   FeCl+2          3.537e-20   7.130e-21   -19.451   -20.147    -0.696     (0)  
   Fe+3            1.164e-20   9.662e-22   -19.934   -21.015    -1.081     (0)  
   FeCl2+          1.162e-20   7.783e-21   -19.935   -20.109    -0.174     (0)  
   FeCl3           1.656e-22   1.902e-22   -21.781   -21.721     0.060     (0)  
   Fe2(OH)2+4      1.271e-27   1.026e-29   -26.896   -28.989    -2.093     (0)  
   Fe3(OH)4+5      8.079e-35   4.338e-38   -34.093   -37.363    -3.270     (0)  
   FeSO4+          0.000e+00   0.000e+00   -41.774   -41.948    -0.174     (0)  
   Fe(SO4)2-       0.000e+00   0.000e+00   -65.170   -65.301    -0.131     (0)  
H(0)          2.541e-06
   H2              1.270e-06   1.459e-06    -5.896    -5.836     0.060     (0)  
N(-3)         9.964e-05
   NH4+            9.688e-05   5.556e-05    -4.014    -4.255    -0.241     (0)  
   NH3             2.757e-06   3.166e-06    -5.559    -5.499     0.060     (0)  
   NH4SO4-         1.498e-28   1.004e-28   -27.824   -27.998    -0.174     (0)  
N(3)          0.000e+00
   NO2-            0.000e+00   0.000e+00   -70.582   -70.713    -0.131     (0)  
N(5)          0.000e+00
   NO3-            0.000e+00   0.000e+00   -96.377   -96.601    -0.224     (0)  
Na            9.964e-05
   Na+             9.964e-05   7.041e-05    -4.002    -4.152    -0.151     (0)  
   NaSO4-          7.261e-29   4.949e-29   -28.139   -28.305    -0.166     (0)  
O(0)          0.000e+00
   O2              0.000e+00   0.000e+00   -80.777   -80.717     0.060     (0)  
S(-2)         3.115e-10
   HS-             1.947e-10   1.204e-10    -9.711    -9.920    -0.209     (0)  
   S5-2            1.020e-11   3.058e-12   -10.991   -11.515    -0.523     (0)  
   H2S             9.164e-12   1.052e-11   -11.038   -10.978     0.060     (0)  
   S4-2            5.952e-12   1.784e-12   -11.225   -11.749    -0.523     (0)  
   S6-2            5.280e-12   1.583e-12   -11.277   -11.801    -0.523     (0)  
   Fe(HS)2         5.307e-13   6.094e-13   -12.275   -12.215     0.060     (0)  
   S-2             7.211e-15   1.454e-15   -14.142   -14.838    -0.696     (0)  
   S3-2            2.097e-15   6.287e-16   -14.678   -15.202    -0.523     (0)  
   S2-2            1.190e-16   3.568e-17   -15.924   -16.448    -0.523     (0)  
   Fe(HS)3-        1.079e-20   7.987e-21   -19.967   -20.098    -0.131     (0)  
S(6)          1.925e-24
   FeSO4           1.025e-24   1.177e-24   -23.989   -23.929     0.060     (0)  
   SO4-2           8.998e-25   1.402e-25   -24.046   -24.853    -0.807     (0)  
   NH4SO4-         1.498e-28   1.004e-28   -27.824   -27.998    -0.174     (0)  
   NaSO4-          7.261e-29   4.949e-29   -28.139   -28.305    -0.166     (0)  
   HSO4-           2.080e-31   1.361e-31   -30.682   -30.866    -0.184     (0)  
   FeSO4+          0.000e+00   0.000e+00   -41.774   -41.948    -0.174     (0)  
   Fe(SO4)2-       0.000e+00   0.000e+00   -65.170   -65.301    -0.131     (0)  

------------------------------Saturation indices-------------------------------

  Phase               SI** log IAP   log K(298 K,   1 atm)

  Fe(OH)2.7Cl0.3    3.43      0.39   -3.04  Fe(OH)2.7Cl0.3
  Fe2(SO4)3      -120.17   -116.59    3.58  Fe2(SO4)3
  Fe3(OH)8          0.39     20.61   20.22  Fe3(OH)8
  Ferrihydrite     -1.92      2.97    4.89  Fe(OH)3
  FeS(ppt)          0.67     -3.25   -3.92  FeS
  Goethite          2.48      2.98    0.50  FeOOH
  Greigite         -9.91    -51.03  -41.13  Fe3S4
  Halite           -6.35     -4.76    1.58  NaCl
  Hematite          9.96      5.96   -4.01  Fe2O3
  Jarosite-H      -60.68    -72.78  -12.10  (H3O)Fe3(SO4)2(OH)6
  Jarosite-Na     -57.73    -68.93  -11.20  NaFe3(SO4)2(OH)6
  Lepidocrocite     1.61      2.98    1.37  FeOOH
  Mackinawite      -1.11     -3.25   -2.14  FeS
  Maghemite        -0.43      5.96    6.39  Fe2O3
  Magnetite        16.89     20.63    3.74  Fe3O4
  Melanterite     -23.74    -26.21   -2.47  FeSO4:7H2O
  Mirabilite      -32.09    -33.20   -1.11  Na2SO4:10H2O
  NaCl             15.24     -4.76  -20.00  NaCl
  NaNO3           -80.75   -100.75  -20.00  NaNO3
  O2(g)           -77.76      5.36   83.12  O2
  pe_fix            6.66      6.66    0.00  e-
  pH_fix           -8.00     -8.00    0.00  H+
  Pyrite            0.00    -18.48  -18.48  FeS2
  Pyrrhotite        0.00     -3.25   -3.25  FeS
  Sulfur          -13.12    -15.23   -2.11  S
  Thenardite      -32.98    -33.16   -0.18  Na2SO4

**For a gas, SI = log10(fugacity). Fugacity = pressure * phi / 1 atm.
  For ideal gases, phi = 1.

Reaction step 110.

Using solution 1.	PURE WATER
Using pure phase assemblage 1.	
Using reaction 1.	

Reaction 1.	

	  1.000e-02 moles of the following reaction have been added:

	                 Relative
	Reactant            moles

	Fe3S1                1.00000

	                 Relative
	Element             moles
	Fe                   3.00000
	S                    1.00000

-------------------------------Phase assemblage--------------------------------

                                                      Moles in assemblage
Phase               SI  log IAP  log K(T, P)   Initial       Final       Delta

Greigite        -10.14   -51.27    -41.13    0.000e+00           0   0.000e+00
Mackinawite      -1.11    -3.25     -2.14    0.000e+00           0   0.000e+00
NaNO3           -81.59  -101.59    -20.00    0.000e+00           0   0.000e+00
Pyrite           -0.24   -18.71    -18.48    0.000e+00           0   0.000e+00
Pyrrhotite        0.00    -3.25     -3.25    1.011e-01   1.111e-01   1.000e-02
pH_fix           -8.00    -8.00      0.00
	 HCl                is reactant       9.598e+00   9.558e+00  -3.983e-02
pe_fix            6.76     6.76      0.00
	 O2                 is reactant       9.899e+00   9.889e+00  -1.000e-02

-----------------------------Solution composition------------------------------

	Elements           Molality       Moles

	Cl                4.405e-01   4.423e-01
	Fe                2.213e-01   2.222e-01
	N                 9.961e-05   1.000e-04
	Na                9.961e-05   1.000e-04
	S                 2.904e-10   2.915e-10

----------------------------Description of solution----------------------------

                                       pH  =   8.000      Charge balance
                                       pe  =  -6.760      Adjusted to redox equilibrium
                        Activity of water  =   0.989
                 Ionic strength (mol/kgw)  =   6.595e-01
                       Mass of water (kg)  =   1.004e+00
                 Total alkalinity (eq/kg)  =   2.383e-03
                         Temperature (°C)  =  25.00
                  Electrical balance (eq)  =  -8.936e-10
 Percent error, 100*(Cat-|An|)/(Cat+|An|)  =  -0.00
                               Iterations  =   7
                                  Total H  = 1.114552e+02
                                  Total O  = 5.572857e+01

----------------------------Distribution of species----------------------------

                                               Log       Log       Log    mole V
   Species          Molality    Activity  Molality  Activity     Gamma    cm³/mol

   OH-             1.627e-06   9.933e-07    -5.789    -6.003    -0.214     (0)  
   H+              1.324e-08   1.000e-08    -7.878    -8.000    -0.122      0.00
   H2O             5.551e+01   9.887e-01     1.744    -0.005     0.000     18.07
Cl            4.405e-01
   Cl-             4.405e-01   2.653e-01    -0.356    -0.576    -0.220     (0)  
   FeCl+2          3.349e-20   6.533e-21   -19.475   -20.185    -0.710     (0)  
   FeCl2+          1.165e-20   7.742e-21   -19.934   -20.111    -0.177     (0)  
   FeCl3           1.765e-22   2.054e-22   -21.753   -21.687     0.066     (0)  
Fe(2)         2.213e-01
   Fe+2            2.190e-01   5.050e-02    -0.660    -1.297    -0.637     (0)  
   FeOH+           2.376e-03   1.579e-03    -2.624    -2.802    -0.177     (0)  
   Fe(OH)2         1.142e-06   1.329e-06    -5.942    -5.877     0.066     (0)  
   Fe(OH)3-        7.346e-09   4.882e-09    -8.134    -8.311    -0.177     (0)  
   Fe(HS)2         4.894e-13   5.696e-13   -12.310   -12.244     0.066     (0)  
   Fe(HS)3-        9.363e-21   6.978e-21   -20.029   -20.156    -0.128     (0)  
   FeSO4           1.510e-25   1.757e-25   -24.821   -24.755     0.066     (0)  
Fe(3)         7.113e-11
   Fe(OH)4-        2.893e-11   1.957e-11   -10.539   -10.708    -0.170     (0)  
   Fe(OH)2+        2.519e-11   1.704e-11   -10.599   -10.769    -0.170     (0)  
   Fe(OH)3         1.701e-11   1.980e-11   -10.769   -10.703     0.066     (0)  
   FeOH+2          2.669e-15   5.205e-16   -14.574   -15.284    -0.710     (0)  
   FeCl+2          3.349e-20   6.533e-21   -19.475   -20.185    -0.710     (0)  
   FeCl2+          1.165e-20   7.742e-21   -19.934   -20.111    -0.177     (0)  
   Fe+3            1.017e-20   8.153e-22   -19.993   -21.089    -1.096     (0)  
   FeCl3           1.765e-22   2.054e-22   -21.753   -21.687     0.066     (0)  
   Fe2(OH)2+4      8.043e-28   7.291e-30   -27.095   -29.137    -2.043     (0)  
   Fe3(OH)4+5      4.035e-35   2.596e-38   -34.394   -37.586    -3.192     (0)  
   FeSO4+          0.000e+00   0.000e+00   -42.700   -42.877    -0.177     (0)  
   Fe(SO4)2-       0.000e+00   0.000e+00   -66.958   -67.086    -0.128     (0)  
H(0)          4.028e-06
   H2              2.014e-06   2.344e-06    -5.696    -5.630     0.066     (0)  
N(-3)         9.961e-05
   NH4+            9.693e-05   5.470e-05    -4.014    -4.262    -0.248     (0)  
   NH3             2.678e-06   3.117e-06    -5.572    -5.506     0.066     (0)  
   NH4SO4-         2.075e-29   1.379e-29   -28.683   -28.861    -0.177     (0)  
N(3)          0.000e+00
   NO2-            0.000e+00   0.000e+00   -71.211   -71.339    -0.128     (0)  
N(5)          0.000e+00
   NO3-            0.000e+00   0.000e+00   -97.204   -97.434    -0.230     (0)  
Na            9.961e-05
   Na+             9.961e-05   7.037e-05    -4.002    -4.153    -0.151     (0)  
   NaSO4-          1.020e-29   6.900e-30   -28.991   -29.161    -0.170     (0)  
O(0)          0.000e+00
   O2              0.000e+00   0.000e+00   -81.196   -81.130     0.066     (0)  
S(-2)         2.904e-10
   HS-             1.842e-10   1.125e-10    -9.735    -9.949    -0.214     (0)  
   S5-2            9.264e-12   2.859e-12   -11.033   -11.544    -0.511     (0)  
   H2S             8.450e-12   9.836e-12   -11.073   -11.007     0.066     (0)  
   S4-2            5.405e-12   1.668e-12   -11.267   -11.778    -0.511     (0)  
   S6-2            4.795e-12   1.480e-12   -11.319   -11.830    -0.511     (0)  
   Fe(HS)2         4.894e-13   5.696e-13   -12.310   -12.244     0.066     (0)  
   S-2             6.967e-15   1.359e-15   -14.157   -14.867    -0.710     (0)  
   S3-2            1.905e-15   5.877e-16   -14.720   -15.231    -0.511     (0)  
   S2-2            1.081e-16   3.335e-17   -15.966   -16.477    -0.511     (0)  
   Fe(HS)3-        9.363e-21   6.978e-21   -20.029   -20.156    -0.128     (0)  
S(6)          2.826e-25
   FeSO4           1.510e-25   1.757e-25   -24.821   -24.755     0.066     (0)  
   SO4-2           1.316e-25   1.957e-26   -24.881   -25.709    -0.828     (0)  
   NH4SO4-         2.075e-29   1.379e-29   -28.683   -28.861    -0.177     (0)  
   NaSO4-          1.020e-29   6.900e-30   -28.991   -29.161    -0.170     (0)  
   HSO4-           2.929e-32   1.899e-32   -31.533   -31.722    -0.188     (0)  
   FeSO4+          0.000e+00   0.000e+00   -42.700   -42.877    -0.177     (0)  
   Fe(SO4)2-       0.000e+00   0.000e+00   -66.958   -67.086    -0.128     (0)  

------------------------------Saturation indices-------------------------------

  Phase               SI** log IAP   log K(298 K,   1 atm)

  Fe(OH)2.7Cl0.3    3.37      0.33   -3.04  Fe(OH)2.7Cl0.3
  Fe2(SO4)3      -122.88   -119.30    3.58  Fe2(SO4)3
  Fe3(OH)8          0.26     20.49   20.22  Fe3(OH)8
  Ferrihydrite     -1.99      2.90    4.89  Fe(OH)3
  FeS(ppt)          0.67     -3.25   -3.92  FeS
  Goethite          2.40      2.90    0.50  FeOOH
  Greigite        -10.14    -51.27  -41.13  Fe3S4
  Halite           -6.31     -4.73    1.58  NaCl
  Hematite          9.82      5.81   -4.01  Fe2O3
  Jarosite-H      -62.62    -74.72  -12.10  (H3O)Fe3(SO4)2(OH)6
  Jarosite-Na     -59.67    -70.87  -11.20  NaFe3(SO4)2(OH)6
  Lepidocrocite     1.53      2.90    1.37  FeOOH
  Mackinawite      -1.11     -3.25   -2.14  FeS
  Maghemite        -0.58      5.81    6.39  Fe2O3
  Magnetite        16.77     20.51    3.74  Fe3O4
  Melanterite     -24.57    -27.04   -2.47  FeSO4:7H2O
  Mirabilite      -32.95    -34.06   -1.11  Na2SO4:10H2O
  NaCl             15.27     -4.73  -20.00  NaCl
  NaNO3           -81.59   -101.59  -20.00  NaNO3
  O2(g)           -78.17      4.95   83.12  O2
  pe_fix            6.76      6.76    0.00  e-
  pH_fix           -8.00     -8.00    0.00  H+
  Pyrite           -0.24    -18.71  -18.48  FeS2
  Pyrrhotite        0.00     -3.25   -3.25  FeS
  Sulfur          -13.36    -15.47   -2.11  S
  Thenardite      -33.83    -34.01   -0.18  Na2SO4

**For a gas, SI = log10(fugacity). Fugacity = pressure * phi / 1 atm.
  For ideal gases, phi = 1.

------------------
End of simulation.
------------------

------------------------------------
Reading input data for simulation 3.
------------------------------------

-------------------------------
End of Run after 0.865 Seconds.
-------------------------------

