   Input file: C:\Users\jt2020\OneDrive - Imperial College London\Data\Thermodynamics\Thermodynamics\Phreeq\Reaction Progress\All models with pyrrhotite\HS-\HS-  pH 8, -400 mV S dom.pqi
  Output file: C:\Users\jt2020\OneDrive - Imperial College London\Data\Thermodynamics\Thermodynamics\Phreeq\Reaction Progress\All models with pyrrhotite\HS-\HS-  pH 8, -400 mV S dom.pqo
Database file: C:\Users\jt2020\OneDrive - Imperial College London\Data\Thermodynamics\Thermodynamics\Phreeq\Reaction Progress\All models with pyrrhotite\Database\llnlpyrrminteq.dat

------------------
Reading data base.
------------------

	SOLUTION_MASTER_SPECIES
	SOLUTION_SPECIES
	SOLUTION_SPECIES
	PHASES
	SURFACE_MASTER_SPECIES
	SURFACE_SPECIES
	END
------------------------------------
Reading input data for simulation 1.
------------------------------------

	DATABASE C:\Users\jt2020\OneDrive - Imperial College London\Data\Thermodynamics\Thermodynamics\Phreeq\Reaction Progress\All models with pyrrhotite\Database\llnlpyrrminteq.dat
	TITLE -250mV pH 6
	SOLUTION 1  PURE WATER
	            pH    8 charge
	          temp   25.0
	           pe     -6.76       #-400 mV 
	PHASES
	       pH_fix
	                H + = H +
	                log_k = 0.0
	       pe_fix
	                e- = e-
	                log_k 0.0
	       Mackinawite   
	                FeS + H+ = Fe+2 + HS-
	                log_k          -2.1371
	                delta_h        -3.578 kcal
	       Pyrrhotite
	                FeS + H+ = Fe+2 + HS-
	                log_k     -3.24554
	                delta_h        -2.646 kcal
	        Greigite
	                Fe3S4 + 4H+ = 2Fe+3 + Fe+2 + 4HS-
	                log_k   -41.128
	                delta_h  42.2473      kcal
	        Pyrite
	                FeS2 + 2H+ + 2e- = Fe+2 + 2HS-
	                log_k          -18.479
	                delta_h        11.3    kcal
	        NaNO3
	                NaNO3 = Na+ + NO3-
	                log_K -20
	        NaCl
	                NaCl = Cl- + Na+
	                log_k     -20
	END
-----
TITLE
-----

 -250mV pH 6

-------------------------------------------
Beginning of initial solution calculations.
-------------------------------------------

Initial solution 1.	PURE WATER

-----------------------------Solution composition------------------------------

	Elements           Molality       Moles

	Pure water     

----------------------------Description of solution----------------------------

                                       pH  =   6.999      Charge balance
                                       pe  =  -6.760    
                        Activity of water  =   1.000
                 Ionic strength (mol/kgw)  =   1.003e-07
                       Mass of water (kg)  =   1.000e+00
                 Total alkalinity (eq/kg)  =   4.513e-21
                         Temperature (°C)  =  25.00
                  Electrical balance (eq)  =  -4.513e-21
 Percent error, 100*(Cat-|An|)/(Cat+|An|)  =  -0.00
                               Iterations  =   6
                                  Total H  = 1.110129e+02
                                  Total O  = 5.550622e+01

----------------------------Distribution of species----------------------------

                                               Log       Log       Log    mole V
   Species          Molality    Activity  Molality  Activity     Gamma    cm³/mol

   OH-             1.003e-07   1.002e-07    -6.999    -6.999    -0.000     (0)  
   H+              1.003e-07   1.002e-07    -6.999    -6.999    -0.000      0.00
   H2O             5.551e+01   1.000e+00     1.744    -0.000     0.000     18.07
H(0)          4.710e-04
   H2              2.355e-04   2.355e-04    -3.628    -3.628     0.000     (0)  
O(0)          0.000e+00
   O2              0.000e+00   0.000e+00   -85.124   -85.124     0.000     (0)  

------------------------------Saturation indices-------------------------------

  Phase               SI** log IAP   log K(298 K,   1 atm)

  O2(g)           -82.16      0.96   83.12  O2
  pe_fix            6.76      6.76    0.00  e-
  pH_fix           -7.00     -7.00    0.00  H+

**For a gas, SI = log10(fugacity). Fugacity = pressure * phi / 1 atm.
  For ideal gases, phi = 1.

------------------
End of simulation.
------------------

------------------------------------
Reading input data for simulation 2.
------------------------------------

	INCREMENTAL_REACTIONS
	REACTION
	Fe1S3 1
	10*1e-12 10*1e-11 10*1e-10 10*1e-9 10*1e-8 10*1e-7 10*1e-6 10*1e-5 10*1e-4  10*1e-3  10*1e-2 mol
	USE solution 1
	EQUILIBRIUM_PHASES 1
	        Mackinawite     0.0     0.0
	        Pyrrhotite      0.0     0.0
	        Greigite        0.0     0.0
	        Pyrite          0.0     0.0
	        NaNO3           0.0     0.05    
	        pH_fix          -8      HCl      10.0     
	        pe_fix          6.76   O2(g)     10.0
	USER_GRAPH 1 Simulation 6
	    -headings               Pyrite Greigite Mackinawite Pyrrhotite
	    -axis_titles            "Fe and S added, Log moles" "Mineral, moles"
	    -chart_title            "Sulphur dominant system with HS- as the oxidant"
	    -axis_scale sy_axis     auto auto auto auto log
	    -initial_solutions      false
	    -connect_simulations    false
	    -axis_scale y_axis      auto auto auto auto Log
	    -axis_scale sy_axis	    auto auto auto auto Log
	    -plot_concentration_vs  x
	  -start
	 5 PUT(GET(1) + RXN, 1)
	  20 PLOT_XY log10(GET(1)), EQUI("Pyrite") color = Green, line_w = 0,   	symbol = Plus, symbol_size = 5, y_axis = 2
	  30 PLOT_XY log10(GET(1)), EQUI("Greigite") color = Blue, line_w = 0,   	symbol = Plus, symbol_size = 5, y_axis = 2
	  40 PLOT_XY log10(GET(1)), EQUI("Mackinawite") color = Cyan, line_w = 0,   	symbol = Plus, symbol_size = 5, y_axis = 2
	  60 PLOT_XY log10(GET(1)), EQUI("Pyrrhotite") color = Red, line_w = 0,   	symbol = Plus, symbol_size = 5, y_axis = 2
	  -end
	    -active                 true
	SELECTED_OUTPUT
	    file                 HS S buffered.csv
	    saturation_indices   Mackinawite  Greigite  Pyrite Pyrrhotite
	    reaction             
	    totals               Fe S 
	    equilibrium_phases   Mackinawite  Greigite  Pyrite Pyrrhotite
	END
-----------------------------------------
Beginning of batch-reaction calculations.
-----------------------------------------

Reaction step 1.

Using solution 1.	PURE WATER
Using pure phase assemblage 1.	
Using reaction 1.	

Reaction 1.	

	  1.000e-12 moles of the following reaction have been added:

	                 Relative
	Reactant            moles

	Fe1S3                1.00000

	                 Relative
	Element             moles
	Fe                   1.00000
	S                    3.00000

-------------------------------Phase assemblage--------------------------------

                                                      Moles in assemblage
Phase               SI  log IAP  log K(T, P)   Initial       Final       Delta

Greigite        -51.04   -92.17    -41.13    0.000e+00           0   0.000e+00
Mackinawite     -14.11   -16.25     -2.14    0.000e+00           0   0.000e+00
NaNO3           -76.01   -96.01    -20.00    5.000e-02           0  -5.000e-02
Pyrite          -15.13   -33.61    -18.48    0.000e+00           0   0.000e+00
Pyrrhotite      -13.00   -16.25     -3.25    0.000e+00           0   0.000e+00
pH_fix           -8.00    -8.00      0.00
	 HCl                is reactant       1.000e+01   9.902e+00  -9.800e-02
pe_fix            6.76     6.76      0.00
	 O2                 is reactant       1.000e+01   1.010e+01   9.988e-02

-----------------------------Solution composition------------------------------

	Elements           Molality       Moles

	Cl                9.809e-02   9.800e-02
	Fe                1.001e-12   1.000e-12
	N                 5.004e-02   5.000e-02
	Na                5.004e-02   5.000e-02
	S                 3.003e-12   3.000e-12

----------------------------Description of solution----------------------------

                                       pH  =   8.000      Charge balance
                                       pe  =  -6.760      Adjusted to redox equilibrium
                        Activity of water  =   0.997
                 Ionic strength (mol/kgw)  =   9.809e-02
                       Mass of water (kg)  =   9.991e-01
                 Total alkalinity (eq/kg)  =   1.999e-03
                         Temperature (°C)  =  25.00
                  Electrical balance (eq)  =  -5.127e-18
 Percent error, 100*(Cat-|An|)/(Cat+|An|)  =  -0.00
                               Iterations  =  47
                                  Total H  = 1.111109e+02
                                  Total O  = 5.545645e+01

----------------------------Distribution of species----------------------------

                                               Log       Log       Log    mole V
   Species          Molality    Activity  Molality  Activity     Gamma    cm³/mol

   OH-             1.312e-06   1.001e-06    -5.882    -5.999    -0.117     (0)  
   H+              1.210e-08   1.000e-08    -7.917    -8.000    -0.083      0.00
   H2O             5.551e+01   9.966e-01     1.744    -0.001     0.000     18.07
Cl            9.809e-02
   Cl-             9.809e-02   7.431e-02    -1.008    -1.129    -0.121     (0)  
   FeCl+2          3.796e-32   1.437e-32   -31.421   -31.843    -0.422     (0)  
   FeCl2+          6.080e-33   4.769e-33   -32.216   -32.322    -0.105     (0)  
   FeCl3           3.464e-35   3.544e-35   -34.460   -34.451     0.010     (0)  
Fe(2)         1.001e-12
   Fe+2            9.850e-13   3.966e-13   -12.007   -12.402    -0.395     (0)  
   FeOH+           1.594e-14   1.250e-14   -13.798   -13.903    -0.105     (0)  
   Fe(OH)2         1.037e-17   1.060e-17   -16.984   -16.975     0.010     (0)  
   Fe(OH)3-        5.005e-20   3.926e-20   -19.301   -19.406    -0.105     (0)  
   Fe(HS)2         7.036e-28   7.196e-28   -27.153   -27.143     0.010     (0)  
   Fe(HS)3-        1.429e-37   1.118e-37   -36.845   -36.951    -0.107     (0)  
   FeSO4           1.766e-38   1.807e-38   -37.753   -37.743     0.010     (0)  
Fe(3)         5.289e-22
   Fe(OH)4-        2.010e-22   1.587e-22   -21.697   -21.800    -0.103     (0)  
   Fe(OH)2+        1.722e-22   1.360e-22   -21.764   -21.867    -0.103     (0)  
   Fe(OH)3         1.556e-22   1.592e-22   -21.808   -21.798     0.010     (0)  
   FeOH+2          1.088e-26   4.120e-27   -25.963   -26.385    -0.422     (0)  
   FeCl+2          3.796e-32   1.437e-32   -31.421   -31.843    -0.422     (0)  
   Fe+3            3.571e-32   6.402e-33   -31.447   -32.194    -0.746     (0)  
   FeCl2+          6.080e-33   4.769e-33   -32.216   -32.322    -0.105     (0)  
   FeCl3           3.464e-35   3.544e-35   -34.460   -34.451     0.010     (0)  
   Fe2(OH)2+4      0.000e+00   0.000e+00   -49.634   -51.340    -1.706     (0)  
   FeSO4+          0.000e+00   0.000e+00   -55.760   -55.865    -0.105     (0)  
   Fe3(OH)4+5      0.000e+00   0.000e+00   -68.221   -70.887    -2.666     (0)  
   Fe(SO4)2-       0.000e+00   0.000e+00   -81.850   -81.957    -0.107     (0)  
H(0)          4.584e-06
   H2              2.292e-06   2.344e-06    -5.640    -5.630     0.010     (0)  
N(-3)         5.004e-02
   NH4+            4.805e-02   3.586e-02    -1.318    -1.445    -0.127     (0)  
   NH3             1.998e-03   2.044e-03    -2.699    -2.690     0.010     (0)  
   NH4SO4-         1.509e-28   1.183e-28   -27.821   -27.927    -0.105     (0)  
N(3)          0.000e+00
   NO2-            0.000e+00   0.000e+00   -68.409   -68.515    -0.107     (0)  
N(5)          0.000e+00
   NO3-            0.000e+00   0.000e+00   -94.485   -94.607    -0.122     (0)  
Na            5.004e-02
   Na+             5.004e-02   3.922e-02    -1.301    -1.406    -0.106     (0)  
   NaSO4-          6.379e-29   5.036e-29   -28.195   -28.298    -0.103     (0)  
O(0)          0.000e+00
   O2              0.000e+00   0.000e+00   -81.133   -81.123     0.010     (0)  
S(-2)         3.003e-12
   HS-             1.870e-12   1.427e-12   -11.728   -11.846    -0.117     (0)  
   H2S             1.220e-13   1.248e-13   -12.914   -12.904     0.010     (0)  
   S5-2            9.681e-14   3.626e-14   -13.014   -13.441    -0.427     (0)  
   S4-2            5.648e-14   2.115e-14   -13.248   -13.675    -0.427     (0)  
   S6-2            5.011e-14   1.877e-14   -13.300   -13.727    -0.427     (0)  
   S-2             4.553e-17   1.723e-17   -16.342   -16.764    -0.422     (0)  
   S3-2            1.990e-17   7.454e-18   -16.701   -17.128    -0.427     (0)  
   S2-2            1.130e-18   4.230e-19   -17.947   -18.374    -0.427     (0)  
   Fe(HS)2         7.036e-28   7.196e-28   -27.153   -27.143     0.010     (0)  
   Fe(HS)3-        1.429e-37   1.118e-37   -36.845   -36.951    -0.107     (0)  
S(6)          9.477e-28
   SO4-2           7.330e-28   2.562e-28   -27.135   -27.591    -0.457     (0)  
   NH4SO4-         1.509e-28   1.183e-28   -27.821   -27.927    -0.105     (0)  
   NaSO4-          6.379e-29   5.036e-29   -28.195   -28.298    -0.103     (0)  
   HSO4-           3.196e-34   2.486e-34   -33.495   -33.605    -0.109     (0)  
   FeSO4           1.766e-38   1.807e-38   -37.753   -37.743     0.010     (0)  
   FeSO4+          0.000e+00   0.000e+00   -55.760   -55.865    -0.105     (0)  
   Fe(SO4)2-       0.000e+00   0.000e+00   -81.850   -81.957    -0.107     (0)  

------------------------------Saturation indices-------------------------------

  Phase               SI** log IAP   log K(298 K,   1 atm)

  Fe(OH)2.7Cl0.3   -7.90    -10.94   -3.04  Fe(OH)2.7Cl0.3
  Fe2(SO4)3      -150.74   -147.16    3.58  Fe2(SO4)3
  Fe3(OH)8        -33.02    -12.80   20.22  Fe3(OH)8
  Ferrihydrite    -13.09     -8.20    4.89  Fe(OH)3
  FeS(ppt)        -12.33    -16.25   -3.92  FeS
  Goethite         -8.70     -8.20    0.50  FeOOH
  Greigite        -51.04    -92.17  -41.13  Fe3S4
  Halite           -4.12     -2.54    1.58  NaCl
  Hematite        -12.38    -16.39   -4.01  Fe2O3
  Jarosite-H      -99.67   -111.77  -12.10  (H3O)Fe3(SO4)2(OH)6
  Jarosite-Na     -93.98   -105.18  -11.20  NaFe3(SO4)2(OH)6
  Lepidocrocite    -9.57     -8.20    1.37  FeOOH
  Mackinawite     -14.11    -16.25   -2.14  FeS
  Maghemite       -22.78    -16.39    6.39  Fe2O3
  Magnetite       -16.53    -12.79    3.74  Fe3O4
  Melanterite     -37.53    -40.00   -2.47  FeSO4:7H2O
  Mirabilite      -29.31    -30.42   -1.11  Na2SO4:10H2O
  NaCl             17.46     -2.54  -20.00  NaCl
  NaNO3           -76.01    -96.01  -20.00  NaNO3
  O2(g)           -78.16      4.96   83.12  O2
  pe_fix            6.76      6.76    0.00  e-
  pH_fix           -8.00     -8.00    0.00  H+
  Pyrite          -15.13    -33.61  -18.48  FeS2
  Pyrrhotite      -13.00    -16.25   -3.25  FeS
  Sulfur          -15.26    -17.37   -2.11  S
  Thenardite      -30.23    -30.40   -0.18  Na2SO4

**For a gas, SI = log10(fugacity). Fugacity = pressure * phi / 1 atm.
  For ideal gases, phi = 1.

Reaction step 2.

Using solution 1.	PURE WATER
Using pure phase assemblage 1.	
Using reaction 1.	

Reaction 1.	

	  1.000e-12 moles of the following reaction have been added:

	                 Relative
	Reactant            moles

	Fe1S3                1.00000

	                 Relative
	Element             moles
	Fe                   1.00000
	S                    3.00000

-------------------------------Phase assemblage--------------------------------

                                                      Moles in assemblage
Phase               SI  log IAP  log K(T, P)   Initial       Final       Delta

Greigite        -48.94   -90.06    -41.13    0.000e+00           0   0.000e+00
Mackinawite     -13.51   -15.65     -2.14    0.000e+00           0   0.000e+00
NaNO3           -76.01   -96.01    -20.00    0.000e+00           0   0.000e+00
Pyrite          -14.23   -32.71    -18.48    0.000e+00           0   0.000e+00
Pyrrhotite      -12.40   -15.65     -3.25    0.000e+00           0   0.000e+00
pH_fix           -8.00    -8.00      0.00
	 HCl                is reactant       9.902e+00   9.902e+00   2.824e-13
pe_fix            6.76     6.76      0.00
	 O2                 is reactant       1.010e+01   1.010e+01   6.004e-13

-----------------------------Solution composition------------------------------

	Elements           Molality       Moles

	Cl                9.809e-02   9.800e-02
	Fe                2.002e-12   2.000e-12
	N                 5.004e-02   5.000e-02
	Na                5.004e-02   5.000e-02
	S                 6.005e-12   6.000e-12

----------------------------Description of solution----------------------------

                                       pH  =   8.000      Charge balance
                                       pe  =  -6.760      Adjusted to redox equilibrium
                        Activity of water  =   0.997
                 Ionic strength (mol/kgw)  =   9.809e-02
                       Mass of water (kg)  =   9.991e-01
                 Total alkalinity (eq/kg)  =   1.999e-03
                         Temperature (°C)  =  25.00
                  Electrical balance (eq)  =   4.313e-18
 Percent error, 100*(Cat-|An|)/(Cat+|An|)  =   0.00
                               Iterations  =   5
                                  Total H  = 1.111109e+02
                                  Total O  = 5.545645e+01

----------------------------Distribution of species----------------------------

                                               Log       Log       Log    mole V
   Species          Molality    Activity  Molality  Activity     Gamma    cm³/mol

   OH-             1.312e-06   1.001e-06    -5.882    -5.999    -0.117     (0)  
   H+              1.210e-08   1.000e-08    -7.917    -8.000    -0.083      0.00
   H2O             5.551e+01   9.966e-01     1.744    -0.001     0.000     18.07
Cl            9.809e-02
   Cl-             9.809e-02   7.431e-02    -1.008    -1.129    -0.121     (0)  
   FeCl+2          7.591e-32   2.873e-32   -31.120   -31.542    -0.422     (0)  
   FeCl2+          1.216e-32   9.538e-33   -31.915   -32.021    -0.105     (0)  
   FeCl3           6.929e-35   7.087e-35   -34.159   -34.150     0.010     (0)  
Fe(2)         2.002e-12
   Fe+2            1.970e-12   7.932e-13   -11.706   -12.101    -0.395     (0)  
   FeOH+           3.187e-14   2.500e-14   -13.497   -13.602    -0.105     (0)  
   Fe(OH)2         2.073e-17   2.121e-17   -16.683   -16.674     0.010     (0)  
   Fe(OH)3-        1.001e-19   7.852e-20   -19.000   -19.105    -0.105     (0)  
   Fe(HS)2         5.629e-27   5.757e-27   -26.250   -26.240     0.010     (0)  
   Fe(HS)3-        2.287e-36   1.789e-36   -35.641   -35.747    -0.107     (0)  
   FeSO4           7.065e-38   7.226e-38   -37.151   -37.141     0.010     (0)  
Fe(3)         1.058e-21
   Fe(OH)4-        4.020e-22   3.173e-22   -21.396   -21.498    -0.103     (0)  
   Fe(OH)2+        3.445e-22   2.719e-22   -21.463   -21.566    -0.103     (0)  
   Fe(OH)3         3.113e-22   3.184e-22   -21.507   -21.497     0.010     (0)  
   FeOH+2          2.177e-26   8.240e-27   -25.662   -26.084    -0.422     (0)  
   FeCl+2          7.591e-32   2.873e-32   -31.120   -31.542    -0.422     (0)  
   Fe+3            7.142e-32   1.280e-32   -31.146   -31.893    -0.746     (0)  
   FeCl2+          1.216e-32   9.538e-33   -31.915   -32.021    -0.105     (0)  
   FeCl3           6.929e-35   7.087e-35   -34.159   -34.150     0.010     (0)  
   Fe2(OH)2+4      0.000e+00   0.000e+00   -49.032   -50.738    -1.706     (0)  
   FeSO4+          0.000e+00   0.000e+00   -55.158   -55.263    -0.105     (0)  
   Fe3(OH)4+5      0.000e+00   0.000e+00   -67.318   -69.984    -2.666     (0)  
   Fe(SO4)2-       0.000e+00   0.000e+00   -80.947   -81.054    -0.107     (0)  
H(0)          4.584e-06
   H2              2.292e-06   2.344e-06    -5.640    -5.630     0.010     (0)  
N(-3)         5.004e-02
   NH4+            4.805e-02   3.586e-02    -1.318    -1.445    -0.127     (0)  
   NH3             1.998e-03   2.044e-03    -2.699    -2.690     0.010     (0)  
   NH4SO4-         3.017e-28   2.367e-28   -27.520   -27.626    -0.105     (0)  
N(3)          0.000e+00
   NO2-            0.000e+00   0.000e+00   -68.409   -68.515    -0.107     (0)  
N(5)          0.000e+00
   NO3-            0.000e+00   0.000e+00   -94.485   -94.607    -0.122     (0)  
Na            5.004e-02
   Na+             5.004e-02   3.922e-02    -1.301    -1.406    -0.106     (0)  
   NaSO4-          1.276e-28   1.007e-28   -27.894   -27.997    -0.103     (0)  
O(0)          0.000e+00
   O2              0.000e+00   0.000e+00   -81.133   -81.123     0.010     (0)  
S(-2)         6.005e-12
   HS-             3.740e-12   2.854e-12   -11.427   -11.545    -0.117     (0)  
   H2S             2.439e-13   2.495e-13   -12.613   -12.603     0.010     (0)  
   S5-2            1.936e-13   7.251e-14   -12.713   -13.140    -0.427     (0)  
   S4-2            1.130e-13   4.231e-14   -12.947   -13.374    -0.427     (0)  
   S6-2            1.002e-13   3.753e-14   -12.999   -13.426    -0.427     (0)  
   S-2             9.106e-17   3.447e-17   -16.041   -16.463    -0.422     (0)  
   S3-2            3.981e-17   1.491e-17   -16.400   -16.827    -0.427     (0)  
   S2-2            2.259e-18   8.461e-19   -17.646   -18.073    -0.427     (0)  
   Fe(HS)2         5.629e-27   5.757e-27   -26.250   -26.240     0.010     (0)  
   Fe(HS)3-        2.287e-36   1.789e-36   -35.641   -35.747    -0.107     (0)  
S(6)          1.895e-27
   SO4-2           1.466e-27   5.123e-28   -26.834   -27.290    -0.457     (0)  
   NH4SO4-         3.017e-28   2.367e-28   -27.520   -27.626    -0.105     (0)  
   NaSO4-          1.276e-28   1.007e-28   -27.894   -27.997    -0.103     (0)  
   HSO4-           6.393e-34   4.972e-34   -33.194   -33.304    -0.109     (0)  
   FeSO4           7.065e-38   7.226e-38   -37.151   -37.141     0.010     (0)  
   FeSO4+          0.000e+00   0.000e+00   -55.158   -55.263    -0.105     (0)  
   Fe(SO4)2-       0.000e+00   0.000e+00   -80.947   -81.054    -0.107     (0)  

------------------------------Saturation indices-------------------------------

  Phase               SI** log IAP   log K(298 K,   1 atm)

  Fe(OH)2.7Cl0.3   -7.60    -10.64   -3.04  Fe(OH)2.7Cl0.3
  Fe2(SO4)3      -149.24   -145.66    3.58  Fe2(SO4)3
  Fe3(OH)8        -32.12    -11.90   20.22  Fe3(OH)8
  Ferrihydrite    -12.79     -7.90    4.89  Fe(OH)3
  FeS(ppt)        -11.73    -15.65   -3.92  FeS
  Goethite         -8.40     -7.90    0.50  FeOOH
  Greigite        -48.94    -90.06  -41.13  Fe3S4
  Halite           -4.12     -2.54    1.58  NaCl
  Hematite        -11.78    -15.79   -4.01  Fe2O3
  Jarosite-H      -98.17   -110.27  -12.10  (H3O)Fe3(SO4)2(OH)6
  Jarosite-Na     -92.47   -103.67  -11.20  NaFe3(SO4)2(OH)6
  Lepidocrocite    -9.27     -7.90    1.37  FeOOH
  Mackinawite     -13.51    -15.65   -2.14  FeS
  Maghemite       -22.18    -15.79    6.39  Fe2O3
  Magnetite       -15.63    -11.89    3.74  Fe3O4
  Melanterite     -36.93    -39.40   -2.47  FeSO4:7H2O
  Mirabilite      -29.00    -30.12   -1.11  Na2SO4:10H2O
  NaCl             17.46     -2.54  -20.00  NaCl
  NaNO3           -76.01    -96.01  -20.00  NaNO3
  O2(g)           -78.16      4.96   83.12  O2
  pe_fix            6.76      6.76    0.00  e-
  pH_fix           -8.00     -8.00    0.00  H+
  Pyrite          -14.23    -32.71  -18.48  FeS2
  Pyrrhotite      -12.40    -15.65   -3.25  FeS
  Sulfur          -14.95    -17.06   -2.11  S
  Thenardite      -29.92    -30.10   -0.18  Na2SO4

**For a gas, SI = log10(fugacity). Fugacity = pressure * phi / 1 atm.
  For ideal gases, phi = 1.

Reaction step 3.

Using solution 1.	PURE WATER
Using pure phase assemblage 1.	
Using reaction 1.	

Reaction 1.	

	  1.000e-12 moles of the following reaction have been added:

	                 Relative
	Reactant            moles

	Fe1S3                1.00000

	                 Relative
	Element             moles
	Fe                   1.00000
	S                    3.00000

-------------------------------Phase assemblage--------------------------------

                                                      Moles in assemblage
Phase               SI  log IAP  log K(T, P)   Initial       Final       Delta

Greigite        -47.70   -88.83    -41.13    0.000e+00           0   0.000e+00
Mackinawite     -13.16   -15.29     -2.14    0.000e+00           0   0.000e+00
NaNO3           -76.01   -96.01    -20.00    0.000e+00           0   0.000e+00
Pyrite          -13.70   -32.18    -18.48    0.000e+00           0   0.000e+00
Pyrrhotite      -12.05   -15.29     -3.25    0.000e+00           0   0.000e+00
pH_fix           -8.00    -8.00      0.00
	 HCl                is reactant       9.902e+00   9.902e+00   2.824e-13
pe_fix            6.76     6.76      0.00
	 O2                 is reactant       1.010e+01   1.010e+01   5.933e-13

-----------------------------Solution composition------------------------------

	Elements           Molality       Moles

	Cl                9.809e-02   9.800e-02
	Fe                3.003e-12   3.000e-12
	N                 5.004e-02   5.000e-02
	Na                5.004e-02   5.000e-02
	S                 9.008e-12   9.000e-12

----------------------------Description of solution----------------------------

                                       pH  =   8.000      Charge balance
                                       pe  =  -6.760      Adjusted to redox equilibrium
                        Activity of water  =   0.997
                 Ionic strength (mol/kgw)  =   9.809e-02
                       Mass of water (kg)  =   9.991e-01
                 Total alkalinity (eq/kg)  =   1.999e-03
                         Temperature (°C)  =  25.00
                  Electrical balance (eq)  =   2.763e-17
 Percent error, 100*(Cat-|An|)/(Cat+|An|)  =   0.00
                               Iterations  =   4
                                  Total H  = 1.111109e+02
                                  Total O  = 5.545645e+01

----------------------------Distribution of species----------------------------

                                               Log       Log       Log    mole V
   Species          Molality    Activity  Molality  Activity     Gamma    cm³/mol

   OH-             1.312e-06   1.001e-06    -5.882    -5.999    -0.117     (0)  
   H+              1.210e-08   1.000e-08    -7.917    -8.000    -0.083      0.00
   H2O             5.551e+01   9.966e-01     1.744    -0.001     0.000     18.07
Cl            9.809e-02
   Cl-             9.809e-02   7.431e-02    -1.008    -1.129    -0.121     (0)  
   FeCl+2          1.139e-31   4.310e-32   -30.944   -31.366    -0.422     (0)  
   FeCl2+          1.824e-32   1.431e-32   -31.739   -31.844    -0.105     (0)  
   FeCl3           1.039e-34   1.063e-34   -33.983   -33.973     0.010     (0)  
Fe(2)         3.003e-12
   Fe+2            2.955e-12   1.190e-12   -11.529   -11.925    -0.395     (0)  
   FeOH+           4.781e-14   3.750e-14   -13.321   -13.426    -0.105     (0)  
   Fe(OH)2         3.110e-17   3.181e-17   -16.507   -16.497     0.010     (0)  
   Fe(OH)3-        1.502e-19   1.178e-19   -18.823   -18.929    -0.105     (0)  
   Fe(HS)2         1.900e-26   1.943e-26   -25.721   -25.712     0.010     (0)  
   Fe(HS)3-        1.158e-35   9.057e-36   -34.936   -35.043    -0.107     (0)  
   FeSO4           1.590e-37   1.626e-37   -36.799   -36.789     0.010     (0)  
Fe(3)         1.587e-21
   Fe(OH)4-        6.030e-22   4.760e-22   -21.220   -21.322    -0.103     (0)  
   Fe(OH)2+        5.167e-22   4.079e-22   -21.287   -21.389    -0.103     (0)  
   Fe(OH)3         4.669e-22   4.776e-22   -21.331   -21.321     0.010     (0)  
   FeOH+2          3.265e-26   1.236e-26   -25.486   -25.908    -0.422     (0)  
   FeCl+2          1.139e-31   4.310e-32   -30.944   -31.366    -0.422     (0)  
   Fe+3            1.071e-31   1.921e-32   -30.970   -31.717    -0.746     (0)  
   FeCl2+          1.824e-32   1.431e-32   -31.739   -31.844    -0.105     (0)  
   FeCl3           1.039e-34   1.063e-34   -33.983   -33.973     0.010     (0)  
   Fe2(OH)2+4      0.000e+00   0.000e+00   -48.680   -50.386    -1.706     (0)  
   FeSO4+          0.000e+00   0.000e+00   -54.805   -54.911    -0.105     (0)  
   Fe3(OH)4+5      0.000e+00   0.000e+00   -66.790   -69.455    -2.666     (0)  
   Fe(SO4)2-       0.000e+00   0.000e+00   -80.419   -80.525    -0.107     (0)  
H(0)          4.584e-06
   H2              2.292e-06   2.344e-06    -5.640    -5.630     0.010     (0)  
N(-3)         5.004e-02
   NH4+            4.805e-02   3.586e-02    -1.318    -1.445    -0.127     (0)  
   NH3             1.998e-03   2.044e-03    -2.699    -2.690     0.010     (0)  
   NH4SO4-         4.526e-28   3.550e-28   -27.344   -27.450    -0.105     (0)  
N(3)          0.000e+00
   NO2-            0.000e+00   0.000e+00   -68.409   -68.515    -0.107     (0)  
N(5)          0.000e+00
   NO3-            0.000e+00   0.000e+00   -94.485   -94.607    -0.122     (0)  
Na            5.004e-02
   Na+             5.004e-02   3.922e-02    -1.301    -1.406    -0.106     (0)  
   NaSO4-          1.914e-28   1.511e-28   -27.718   -27.821    -0.103     (0)  
O(0)          0.000e+00
   O2              0.000e+00   0.000e+00   -81.133   -81.123     0.010     (0)  
S(-2)         9.008e-12
   HS-             5.610e-12   4.281e-12   -11.251   -11.368    -0.117     (0)  
   H2S             3.659e-13   3.743e-13   -12.437   -12.427     0.010     (0)  
   S5-2            2.904e-13   1.088e-13   -12.537   -12.963    -0.427     (0)  
   S4-2            1.694e-13   6.346e-14   -12.771   -13.197    -0.427     (0)  
   S6-2            1.503e-13   5.630e-14   -12.823   -13.249    -0.427     (0)  
   S-2             1.366e-16   5.170e-17   -15.865   -16.286    -0.422     (0)  
   S3-2            5.971e-17   2.236e-17   -16.224   -16.650    -0.427     (0)  
   S2-2            3.389e-18   1.269e-18   -17.470   -17.896    -0.427     (0)  
   Fe(HS)2         1.900e-26   1.943e-26   -25.721   -25.712     0.010     (0)  
   Fe(HS)3-        1.158e-35   9.057e-36   -34.936   -35.043    -0.107     (0)  
S(6)          2.843e-27
   SO4-2           2.199e-27   7.685e-28   -26.658   -27.114    -0.457     (0)  
   NH4SO4-         4.526e-28   3.550e-28   -27.344   -27.450    -0.105     (0)  
   NaSO4-          1.914e-28   1.511e-28   -27.718   -27.821    -0.103     (0)  
   HSO4-           9.589e-34   7.457e-34   -33.018   -33.127    -0.109     (0)  
   FeSO4           1.590e-37   1.626e-37   -36.799   -36.789     0.010     (0)  
   FeSO4+          0.000e+00   0.000e+00   -54.805   -54.911    -0.105     (0)  
   Fe(SO4)2-       0.000e+00   0.000e+00   -80.419   -80.525    -0.107     (0)  

------------------------------Saturation indices-------------------------------

  Phase               SI** log IAP   log K(298 K,   1 atm)

  Fe(OH)2.7Cl0.3   -7.42    -10.46   -3.04  Fe(OH)2.7Cl0.3
  Fe2(SO4)3      -148.36   -144.78    3.58  Fe2(SO4)3
  Fe3(OH)8        -31.59    -11.37   20.22  Fe3(OH)8
  Ferrihydrite    -12.61     -7.72    4.89  Fe(OH)3
  FeS(ppt)        -11.38    -15.29   -3.92  FeS
  Goethite         -8.22     -7.72    0.50  FeOOH
  Greigite        -47.70    -88.83  -41.13  Fe3S4
  Halite           -4.12     -2.54    1.58  NaCl
  Hematite        -11.43    -15.44   -4.01  Fe2O3
  Jarosite-H      -97.29   -109.39  -12.10  (H3O)Fe3(SO4)2(OH)6
  Jarosite-Na     -91.59   -102.79  -11.20  NaFe3(SO4)2(OH)6
  Lepidocrocite    -9.09     -7.72    1.37  FeOOH
  Mackinawite     -13.16    -15.29   -2.14  FeS
  Maghemite       -21.82    -15.44    6.39  Fe2O3
  Magnetite       -15.10    -11.36    3.74  Fe3O4
  Melanterite     -36.58    -39.05   -2.47  FeSO4:7H2O
  Mirabilite      -28.83    -29.94   -1.11  Na2SO4:10H2O
  NaCl             17.46     -2.54  -20.00  NaCl
  NaNO3           -76.01    -96.01  -20.00  NaNO3
  O2(g)           -78.16      4.96   83.12  O2
  pe_fix            6.76      6.76    0.00  e-
  pH_fix           -8.00     -8.00    0.00  H+
  Pyrite          -13.70    -32.18  -18.48  FeS2
  Pyrrhotite      -12.05    -15.29   -3.25  FeS
  Sulfur          -14.78    -16.89   -2.11  S
  Thenardite      -29.75    -29.93   -0.18  Na2SO4

**For a gas, SI = log10(fugacity). Fugacity = pressure * phi / 1 atm.
  For ideal gases, phi = 1.

Reaction step 4.

Using solution 1.	PURE WATER
Using pure phase assemblage 1.	
Using reaction 1.	

Reaction 1.	

	  1.000e-12 moles of the following reaction have been added:

	                 Relative
	Reactant            moles

	Fe1S3                1.00000

	                 Relative
	Element             moles
	Fe                   1.00000
	S                    3.00000

-------------------------------Phase assemblage--------------------------------

                                                      Moles in assemblage
Phase               SI  log IAP  log K(T, P)   Initial       Final       Delta

Greigite        -46.83   -87.96    -41.13    0.000e+00           0   0.000e+00
Mackinawite     -12.91   -15.04     -2.14    0.000e+00           0   0.000e+00
NaNO3           -76.01   -96.01    -20.00    0.000e+00           0   0.000e+00
Pyrite          -13.33   -31.81    -18.48    0.000e+00           0   0.000e+00
Pyrrhotite      -11.80   -15.04     -3.25    0.000e+00           0   0.000e+00
pH_fix           -8.00    -8.00      0.00
	 HCl                is reactant       9.902e+00   9.902e+00   2.824e-13
pe_fix            6.76     6.76      0.00
	 O2                 is reactant       1.010e+01   1.010e+01   6.022e-13

-----------------------------Solution composition------------------------------

	Elements           Molality       Moles

	Cl                9.809e-02   9.800e-02
	Fe                4.004e-12   4.000e-12
	N                 5.004e-02   5.000e-02
	Na                5.004e-02   5.000e-02
	S                 1.201e-11   1.200e-11

----------------------------Description of solution----------------------------

                                       pH  =   8.000      Charge balance
                                       pe  =  -6.760      Adjusted to redox equilibrium
                        Activity of water  =   0.997
                 Ionic strength (mol/kgw)  =   9.809e-02
                       Mass of water (kg)  =   9.991e-01
                 Total alkalinity (eq/kg)  =   1.999e-03
                         Temperature (°C)  =  25.00
                  Electrical balance (eq)  =   3.708e-17
 Percent error, 100*(Cat-|An|)/(Cat+|An|)  =   0.00
                               Iterations  =   4
                                  Total H  = 1.111109e+02
                                  Total O  = 5.545645e+01

----------------------------Distribution of species----------------------------

                                               Log       Log       Log    mole V
   Species          Molality    Activity  Molality  Activity     Gamma    cm³/mol

   OH-             1.312e-06   1.001e-06    -5.882    -5.999    -0.117     (0)  
   H+              1.210e-08   1.000e-08    -7.917    -8.000    -0.083      0.00
   H2O             5.551e+01   9.966e-01     1.744    -0.001     0.000     18.07
Cl            9.809e-02
   Cl-             9.809e-02   7.431e-02    -1.008    -1.129    -0.121     (0)  
   FeCl+2          1.518e-31   5.747e-32   -30.819   -31.241    -0.422     (0)  
   FeCl2+          2.432e-32   1.908e-32   -31.614   -31.720    -0.105     (0)  
   FeCl3           1.386e-34   1.417e-34   -33.858   -33.848     0.010     (0)  
Fe(2)         4.004e-12
   Fe+2            3.940e-12   1.586e-12   -11.405   -11.800    -0.395     (0)  
   FeOH+           6.374e-14   5.000e-14   -13.196   -13.301    -0.105     (0)  
   Fe(OH)2         4.146e-17   4.241e-17   -16.382   -16.373     0.010     (0)  
   Fe(OH)3-        2.002e-19   1.570e-19   -18.699   -18.804    -0.105     (0)  
   Fe(HS)2         4.503e-26   4.606e-26   -25.347   -25.337     0.010     (0)  
   Fe(HS)3-        3.659e-35   2.863e-35   -34.437   -34.543    -0.107     (0)  
   FeSO4           2.826e-37   2.891e-37   -36.549   -36.539     0.010     (0)  
Fe(3)         2.115e-21
   Fe(OH)4-        8.039e-22   6.347e-22   -21.095   -21.197    -0.103     (0)  
   Fe(OH)2+        6.889e-22   5.438e-22   -21.162   -21.265    -0.103     (0)  
   Fe(OH)3         6.226e-22   6.368e-22   -21.206   -21.196     0.010     (0)  
   FeOH+2          4.354e-26   1.648e-26   -25.361   -25.783    -0.422     (0)  
   FeCl+2          1.518e-31   5.747e-32   -30.819   -31.241    -0.422     (0)  
   Fe+3            1.428e-31   2.561e-32   -30.845   -31.592    -0.746     (0)  
   FeCl2+          2.432e-32   1.908e-32   -31.614   -31.720    -0.105     (0)  
   FeCl3           1.386e-34   1.417e-34   -33.858   -33.848     0.010     (0)  
   Fe2(OH)2+4      0.000e+00   0.000e+00   -48.430   -50.136    -1.706     (0)  
   FeSO4+          0.000e+00   0.000e+00   -54.556   -54.661    -0.105     (0)  
   Fe3(OH)4+5      0.000e+00   0.000e+00   -66.415   -69.081    -2.666     (0)  
   Fe(SO4)2-       0.000e+00   0.000e+00   -80.044   -80.150    -0.107     (0)  
H(0)          4.584e-06
   H2              2.292e-06   2.344e-06    -5.640    -5.630     0.010     (0)  
N(-3)         5.004e-02
   NH4+            4.805e-02   3.586e-02    -1.318    -1.445    -0.127     (0)  
   NH3             1.998e-03   2.044e-03    -2.699    -2.690     0.010     (0)  
   NH4SO4-         6.035e-28   4.734e-28   -27.219   -27.325    -0.105     (0)  
N(3)          0.000e+00
   NO2-            0.000e+00   0.000e+00   -68.409   -68.515    -0.107     (0)  
N(5)          0.000e+00
   NO3-            0.000e+00   0.000e+00   -94.485   -94.607    -0.122     (0)  
Na            5.004e-02
   Na+             5.004e-02   3.922e-02    -1.301    -1.406    -0.106     (0)  
   NaSO4-          2.552e-28   2.014e-28   -27.593   -27.696    -0.103     (0)  
O(0)          0.000e+00
   O2              0.000e+00   0.000e+00   -81.133   -81.123     0.010     (0)  
S(-2)         1.201e-11
   HS-             7.480e-12   5.708e-12   -11.126   -11.244    -0.117     (0)  
   H2S             4.879e-13   4.990e-13   -12.312   -12.302     0.010     (0)  
   S5-2            3.872e-13   1.450e-13   -12.412   -12.839    -0.427     (0)  
   S4-2            2.259e-13   8.462e-14   -12.646   -13.073    -0.427     (0)  
   S6-2            2.004e-13   7.507e-14   -12.698   -13.125    -0.427     (0)  
   S-2             1.821e-16   6.894e-17   -15.740   -16.162    -0.422     (0)  
   S3-2            7.961e-17   2.982e-17   -16.099   -16.526    -0.427     (0)  
   S2-2            4.518e-18   1.692e-18   -17.345   -17.772    -0.427     (0)  
   Fe(HS)2         4.503e-26   4.606e-26   -25.347   -25.337     0.010     (0)  
   Fe(HS)3-        3.659e-35   2.863e-35   -34.437   -34.543    -0.107     (0)  
S(6)          3.791e-27
   SO4-2           2.932e-27   1.025e-27   -26.533   -26.989    -0.457     (0)  
   NH4SO4-         6.035e-28   4.734e-28   -27.219   -27.325    -0.105     (0)  
   NaSO4-          2.552e-28   2.014e-28   -27.593   -27.696    -0.103     (0)  
   HSO4-           1.279e-33   9.943e-34   -32.893   -33.002    -0.109     (0)  
   FeSO4           2.826e-37   2.891e-37   -36.549   -36.539     0.010     (0)  
   FeSO4+          0.000e+00   0.000e+00   -54.556   -54.661    -0.105     (0)  
   Fe(SO4)2-       0.000e+00   0.000e+00   -80.044   -80.150    -0.107     (0)  

------------------------------Saturation indices-------------------------------

  Phase               SI** log IAP   log K(298 K,   1 atm)

  Fe(OH)2.7Cl0.3   -7.29    -10.33   -3.04  Fe(OH)2.7Cl0.3
  Fe2(SO4)3      -147.73   -144.15    3.58  Fe2(SO4)3
  Fe3(OH)8        -31.22    -10.99   20.22  Fe3(OH)8
  Ferrihydrite    -12.49     -7.60    4.89  Fe(OH)3
  FeS(ppt)        -11.13    -15.04   -3.92  FeS
  Goethite         -8.09     -7.59    0.50  FeOOH
  Greigite        -46.83    -87.96  -41.13  Fe3S4
  Halite           -4.12     -2.54    1.58  NaCl
  Hematite        -11.18    -15.19   -4.01  Fe2O3
  Jarosite-H      -96.66   -108.76  -12.10  (H3O)Fe3(SO4)2(OH)6
  Jarosite-Na     -90.97   -102.17  -11.20  NaFe3(SO4)2(OH)6
  Lepidocrocite    -8.97     -7.59    1.37  FeOOH
  Mackinawite     -12.91    -15.04   -2.14  FeS
  Maghemite       -21.57    -15.19    6.39  Fe2O3
  Magnetite       -14.73    -10.99    3.74  Fe3O4
  Melanterite     -36.33    -38.80   -2.47  FeSO4:7H2O
  Mirabilite      -28.70    -29.82   -1.11  Na2SO4:10H2O
  NaCl             17.46     -2.54  -20.00  NaCl
  NaNO3           -76.01    -96.01  -20.00  NaNO3
  O2(g)           -78.16      4.96   83.12  O2
  pe_fix            6.76      6.76    0.00  e-
  pH_fix           -8.00     -8.00    0.00  H+
  Pyrite          -13.33    -31.81  -18.48  FeS2
  Pyrrhotite      -11.80    -15.04   -3.25  FeS
  Sulfur          -14.65    -16.76   -2.11  S
  Thenardite      -29.62    -29.80   -0.18  Na2SO4

**For a gas, SI = log10(fugacity). Fugacity = pressure * phi / 1 atm.
  For ideal gases, phi = 1.

Reaction step 5.

Using solution 1.	PURE WATER
Using pure phase assemblage 1.	
Using reaction 1.	

Reaction 1.	

	  1.000e-12 moles of the following reaction have been added:

	                 Relative
	Reactant            moles

	Fe1S3                1.00000

	                 Relative
	Element             moles
	Fe                   1.00000
	S                    3.00000

-------------------------------Phase assemblage--------------------------------

                                                      Moles in assemblage
Phase               SI  log IAP  log K(T, P)   Initial       Final       Delta

Greigite        -46.15   -87.28    -41.13    0.000e+00           0   0.000e+00
Mackinawite     -12.71   -14.85     -2.14    0.000e+00           0   0.000e+00
NaNO3           -76.01   -96.01    -20.00    0.000e+00           0   0.000e+00
Pyrite          -13.04   -31.52    -18.48    0.000e+00           0   0.000e+00
Pyrrhotite      -11.60   -14.85     -3.25    0.000e+00           0   0.000e+00
pH_fix           -8.00    -8.00      0.00
	 HCl                is reactant       9.902e+00   9.902e+00   2.824e-13
pe_fix            6.76     6.76      0.00
	 O2                 is reactant       1.010e+01   1.010e+01   5.986e-13

-----------------------------Solution composition------------------------------

	Elements           Molality       Moles

	Cl                9.809e-02   9.800e-02
	Fe                5.004e-12   5.000e-12
	N                 5.004e-02   5.000e-02
	Na                5.004e-02   5.000e-02
	S                 1.501e-11   1.500e-11

----------------------------Description of solution----------------------------

                                       pH  =   8.000      Charge balance
                                       pe  =  -6.760      Adjusted to redox equilibrium
                        Activity of water  =   0.997
                 Ionic strength (mol/kgw)  =   9.809e-02
                       Mass of water (kg)  =   9.991e-01
                 Total alkalinity (eq/kg)  =   1.999e-03
                         Temperature (°C)  =  25.00
                  Electrical balance (eq)  =   6.028e-17
 Percent error, 100*(Cat-|An|)/(Cat+|An|)  =   0.00
                               Iterations  =   3
                                  Total H  = 1.111109e+02
                                  Total O  = 5.545645e+01

----------------------------Distribution of species----------------------------

                                               Log       Log       Log    mole V
   Species          Molality    Activity  Molality  Activity     Gamma    cm³/mol

   OH-             1.312e-06   1.001e-06    -5.882    -5.999    -0.117     (0)  
   H+              1.210e-08   1.000e-08    -7.917    -8.000    -0.083      0.00
   H2O             5.551e+01   9.966e-01     1.744    -0.001     0.000     18.07
Cl            9.809e-02
   Cl-             9.809e-02   7.431e-02    -1.008    -1.129    -0.121     (0)  
   FeCl+2          1.898e-31   7.184e-32   -30.722   -31.144    -0.422     (0)  
   FeCl2+          3.040e-32   2.384e-32   -31.517   -31.623    -0.105     (0)  
   FeCl3           1.732e-34   1.772e-34   -33.761   -33.752     0.010     (0)  
Fe(2)         5.004e-12
   Fe+2            4.925e-12   1.983e-12   -11.308   -11.703    -0.395     (0)  
   FeOH+           7.968e-14   6.249e-14   -13.099   -13.204    -0.105     (0)  
   Fe(OH)2         5.183e-17   5.301e-17   -16.285   -16.276     0.010     (0)  
   Fe(OH)3-        2.503e-19   1.963e-19   -18.602   -18.707    -0.105     (0)  
   Fe(HS)2         8.795e-26   8.996e-26   -25.056   -25.046     0.010     (0)  
   Fe(HS)3-        8.934e-35   6.989e-35   -34.049   -34.156    -0.107     (0)  
   FeSO4           4.416e-37   4.517e-37   -36.355   -36.345     0.010     (0)  
Fe(3)         2.644e-21
   Fe(OH)4-        1.005e-21   7.933e-22   -20.998   -21.101    -0.103     (0)  
   Fe(OH)2+        8.611e-22   6.798e-22   -21.065   -21.168    -0.103     (0)  
   Fe(OH)3         7.782e-22   7.960e-22   -21.109   -21.099     0.010     (0)  
   FeOH+2          5.442e-26   2.060e-26   -25.264   -25.686    -0.422     (0)  
   FeCl+2          1.898e-31   7.184e-32   -30.722   -31.144    -0.422     (0)  
   Fe+3            1.786e-31   3.201e-32   -30.748   -31.495    -0.746     (0)  
   FeCl2+          3.040e-32   2.384e-32   -31.517   -31.623    -0.105     (0)  
   FeCl3           1.732e-34   1.772e-34   -33.761   -33.752     0.010     (0)  
   Fe2(OH)2+4      0.000e+00   0.000e+00   -48.236   -49.942    -1.706     (0)  
   FeSO4+          0.000e+00   0.000e+00   -54.362   -54.467    -0.105     (0)  
   Fe3(OH)4+5      0.000e+00   0.000e+00   -66.124   -68.790    -2.666     (0)  
   Fe(SO4)2-       0.000e+00   0.000e+00   -79.753   -79.860    -0.107     (0)  
H(0)          4.584e-06
   H2              2.292e-06   2.344e-06    -5.640    -5.630     0.010     (0)  
N(-3)         5.004e-02
   NH4+            4.805e-02   3.586e-02    -1.318    -1.445    -0.127     (0)  
   NH3             1.998e-03   2.044e-03    -2.699    -2.690     0.010     (0)  
   NH4SO4-         7.544e-28   5.917e-28   -27.122   -27.228    -0.105     (0)  
N(3)          0.000e+00
   NO2-            0.000e+00   0.000e+00   -68.409   -68.515    -0.107     (0)  
N(5)          0.000e+00
   NO3-            0.000e+00   0.000e+00   -94.485   -94.607    -0.122     (0)  
Na            5.004e-02
   Na+             5.004e-02   3.922e-02    -1.301    -1.406    -0.106     (0)  
   NaSO4-          3.190e-28   2.518e-28   -27.496   -27.599    -0.103     (0)  
O(0)          0.000e+00
   O2              0.000e+00   0.000e+00   -81.133   -81.123     0.010     (0)  
S(-2)         1.501e-11
   HS-             9.350e-12   7.134e-12   -11.029   -11.147    -0.117     (0)  
   H2S             6.099e-13   6.238e-13   -12.215   -12.205     0.010     (0)  
   S5-2            4.840e-13   1.813e-13   -12.315   -12.742    -0.427     (0)  
   S4-2            2.824e-13   1.058e-13   -12.549   -12.976    -0.427     (0)  
   S6-2            2.505e-13   9.383e-14   -12.601   -13.028    -0.427     (0)  
   S-2             2.277e-16   8.617e-17   -15.643   -16.065    -0.422     (0)  
   S3-2            9.951e-17   3.727e-17   -16.002   -16.429    -0.427     (0)  
   S2-2            5.648e-18   2.115e-18   -17.248   -17.675    -0.427     (0)  
   Fe(HS)2         8.795e-26   8.996e-26   -25.056   -25.046     0.010     (0)  
   Fe(HS)3-        8.934e-35   6.989e-35   -34.049   -34.156    -0.107     (0)  
S(6)          4.738e-27
   SO4-2           3.665e-27   1.281e-27   -26.436   -26.893    -0.457     (0)  
   NH4SO4-         7.544e-28   5.917e-28   -27.122   -27.228    -0.105     (0)  
   NaSO4-          3.190e-28   2.518e-28   -27.496   -27.599    -0.103     (0)  
   HSO4-           1.598e-33   1.243e-33   -32.796   -32.906    -0.109     (0)  
   FeSO4           4.416e-37   4.517e-37   -36.355   -36.345     0.010     (0)  
   FeSO4+          0.000e+00   0.000e+00   -54.362   -54.467    -0.105     (0)  
   Fe(SO4)2-       0.000e+00   0.000e+00   -79.753   -79.860    -0.107     (0)  

------------------------------Saturation indices-------------------------------

  Phase               SI** log IAP   log K(298 K,   1 atm)

  Fe(OH)2.7Cl0.3   -7.20    -10.24   -3.04  Fe(OH)2.7Cl0.3
  Fe2(SO4)3      -147.25   -143.67    3.58  Fe2(SO4)3
  Fe3(OH)8        -30.93    -10.70   20.22  Fe3(OH)8
  Ferrihydrite    -12.39     -7.50    4.89  Fe(OH)3
  FeS(ppt)        -10.93    -14.85   -3.92  FeS
  Goethite         -8.00     -7.50    0.50  FeOOH
  Greigite        -46.15    -87.28  -41.13  Fe3S4
  Halite           -4.12     -2.54    1.58  NaCl
  Hematite        -10.99    -14.99   -4.01  Fe2O3
  Jarosite-H      -96.18   -108.28  -12.10  (H3O)Fe3(SO4)2(OH)6
  Jarosite-Na     -90.48   -101.68  -11.20  NaFe3(SO4)2(OH)6
  Lepidocrocite    -8.87     -7.50    1.37  FeOOH
  Mackinawite     -12.71    -14.85   -2.14  FeS
  Maghemite       -21.38    -14.99    6.39  Fe2O3
  Magnetite       -14.43    -10.70    3.74  Fe3O4
  Melanterite     -36.14    -38.61   -2.47  FeSO4:7H2O
  Mirabilite      -28.61    -29.72   -1.11  Na2SO4:10H2O
  NaCl             17.46     -2.54  -20.00  NaCl
  NaNO3           -76.01    -96.01  -20.00  NaNO3
  O2(g)           -78.16      4.96   83.12  O2
  pe_fix            6.76      6.76    0.00  e-
  pH_fix           -8.00     -8.00    0.00  H+
  Pyrite          -13.04    -31.52  -18.48  FeS2
  Pyrrhotite      -11.60    -14.85   -3.25  FeS
  Sulfur          -14.56    -16.67   -2.11  S
  Thenardite      -29.53    -29.71   -0.18  Na2SO4

**For a gas, SI = log10(fugacity). Fugacity = pressure * phi / 1 atm.
  For ideal gases, phi = 1.

Reaction step 6.

Using solution 1.	PURE WATER
Using pure phase assemblage 1.	
Using reaction 1.	

Reaction 1.	

	  1.000e-12 moles of the following reaction have been added:

	                 Relative
	Reactant            moles

	Fe1S3                1.00000

	                 Relative
	Element             moles
	Fe                   1.00000
	S                    3.00000

-------------------------------Phase assemblage--------------------------------

                                                      Moles in assemblage
Phase               SI  log IAP  log K(T, P)   Initial       Final       Delta

Greigite        -45.60   -86.72    -41.13    0.000e+00           0   0.000e+00
Mackinawite     -12.55   -14.69     -2.14    0.000e+00           0   0.000e+00
NaNO3           -76.01   -96.01    -20.00    0.000e+00           0   0.000e+00
Pyrite          -12.80   -31.28    -18.48    0.000e+00           0   0.000e+00
Pyrrhotite      -11.45   -14.69     -3.25    0.000e+00           0   0.000e+00
pH_fix           -8.00    -8.00      0.00
	 HCl                is reactant       9.902e+00   9.902e+00   2.824e-13
pe_fix            6.76     6.76      0.00
	 O2                 is reactant       1.010e+01   1.010e+01   5.986e-13

-----------------------------Solution composition------------------------------

	Elements           Molality       Moles

	Cl                9.809e-02   9.800e-02
	Fe                6.005e-12   6.000e-12
	N                 5.004e-02   5.000e-02
	Na                5.004e-02   5.000e-02
	S                 1.802e-11   1.800e-11

----------------------------Description of solution----------------------------

                                       pH  =   8.000      Charge balance
                                       pe  =  -6.760      Adjusted to redox equilibrium
                        Activity of water  =   0.997
                 Ionic strength (mol/kgw)  =   9.809e-02
                       Mass of water (kg)  =   9.991e-01
                 Total alkalinity (eq/kg)  =   1.999e-03
                         Temperature (°C)  =  25.00
                  Electrical balance (eq)  =   1.044e-16
 Percent error, 100*(Cat-|An|)/(Cat+|An|)  =   0.00
                               Iterations  =   3
                                  Total H  = 1.111109e+02
                                  Total O  = 5.545645e+01

----------------------------Distribution of species----------------------------

                                               Log       Log       Log    mole V
   Species          Molality    Activity  Molality  Activity     Gamma    cm³/mol

   OH-             1.312e-06   1.001e-06    -5.882    -5.999    -0.117     (0)  
   H+              1.210e-08   1.000e-08    -7.917    -8.000    -0.083      0.00
   H2O             5.551e+01   9.966e-01     1.744    -0.001     0.000     18.07
Cl            9.809e-02
   Cl-             9.809e-02   7.431e-02    -1.008    -1.129    -0.121     (0)  
   FeCl+2          2.277e-31   8.620e-32   -30.643   -31.064    -0.422     (0)  
   FeCl2+          3.648e-32   2.861e-32   -31.438   -31.543    -0.105     (0)  
   FeCl3           2.079e-34   2.126e-34   -33.682   -33.672     0.010     (0)  
Fe(2)         6.005e-12
   Fe+2            5.910e-12   2.380e-12   -11.228   -11.624    -0.395     (0)  
   FeOH+           9.561e-14   7.499e-14   -13.019   -13.125    -0.105     (0)  
   Fe(OH)2         6.219e-17   6.362e-17   -16.206   -16.196     0.010     (0)  
   Fe(OH)3-        3.003e-19   2.356e-19   -18.522   -18.628    -0.105     (0)  
   Fe(HS)2         1.520e-25   1.554e-25   -24.818   -24.808     0.010     (0)  
   Fe(HS)3-        1.852e-34   1.449e-34   -33.732   -33.839    -0.107     (0)  
   FeSO4           6.359e-37   6.504e-37   -36.197   -36.187     0.010     (0)  
Fe(3)         3.173e-21
   Fe(OH)4-        1.206e-21   9.520e-22   -20.919   -21.021    -0.103     (0)  
   Fe(OH)2+        1.033e-21   8.158e-22   -20.986   -21.088    -0.103     (0)  
   Fe(OH)3         9.339e-22   9.552e-22   -21.030   -21.020     0.010     (0)  
   FeOH+2          6.530e-26   2.472e-26   -25.185   -25.607    -0.422     (0)  
   FeCl+2          2.277e-31   8.620e-32   -30.643   -31.064    -0.422     (0)  
   Fe+3            2.143e-31   3.841e-32   -30.669   -31.416    -0.746     (0)  
   FeCl2+          3.648e-32   2.861e-32   -31.438   -31.543    -0.105     (0)  
   FeCl3           2.079e-34   2.126e-34   -33.682   -33.672     0.010     (0)  
   Fe2(OH)2+4      0.000e+00   0.000e+00   -48.078   -49.784    -1.706     (0)  
   FeSO4+          0.000e+00   0.000e+00   -54.203   -54.309    -0.105     (0)  
   Fe3(OH)4+5      0.000e+00   0.000e+00   -65.887   -68.552    -2.666     (0)  
   Fe(SO4)2-       0.000e+00   0.000e+00   -79.516   -79.622    -0.107     (0)  
H(0)          4.584e-06
   H2              2.292e-06   2.344e-06    -5.640    -5.630     0.010     (0)  
N(-3)         5.004e-02
   NH4+            4.805e-02   3.586e-02    -1.318    -1.445    -0.127     (0)  
   NH3             1.998e-03   2.044e-03    -2.699    -2.690     0.010     (0)  
   NH4SO4-         9.052e-28   7.100e-28   -27.043   -27.149    -0.105     (0)  
N(3)          0.000e+00
   NO2-            0.000e+00   0.000e+00   -68.409   -68.515    -0.107     (0)  
N(5)          0.000e+00
   NO3-            0.000e+00   0.000e+00   -94.485   -94.607    -0.122     (0)  
Na            5.004e-02
   Na+             5.004e-02   3.922e-02    -1.301    -1.406    -0.106     (0)  
   NaSO4-          3.828e-28   3.022e-28   -27.417   -27.520    -0.103     (0)  
O(0)          0.000e+00
   O2              0.000e+00   0.000e+00   -81.133   -81.123     0.010     (0)  
S(-2)         1.802e-11
   HS-             1.122e-11   8.561e-12   -10.950   -11.067    -0.117     (0)  
   H2S             7.318e-13   7.485e-13   -12.136   -12.126     0.010     (0)  
   S5-2            5.809e-13   2.175e-13   -12.236   -12.662    -0.427     (0)  
   S4-2            3.389e-13   1.269e-13   -12.470   -12.896    -0.427     (0)  
   S6-2            3.007e-13   1.126e-13   -12.522   -12.948    -0.427     (0)  
   S-2             2.732e-16   1.034e-16   -15.564   -15.985    -0.422     (0)  
   S3-2            1.194e-16   4.472e-17   -15.923   -16.349    -0.427     (0)  
   S2-2            6.777e-18   2.538e-18   -17.169   -17.595    -0.427     (0)  
   Fe(HS)2         1.520e-25   1.554e-25   -24.818   -24.808     0.010     (0)  
   Fe(HS)3-        1.852e-34   1.449e-34   -33.732   -33.839    -0.107     (0)  
S(6)          5.686e-27
   SO4-2           4.398e-27   1.537e-27   -26.357   -26.813    -0.457     (0)  
   NH4SO4-         9.052e-28   7.100e-28   -27.043   -27.149    -0.105     (0)  
   NaSO4-          3.828e-28   3.022e-28   -27.417   -27.520    -0.103     (0)  
   HSO4-           1.918e-33   1.491e-33   -32.717   -32.826    -0.109     (0)  
   FeSO4           6.359e-37   6.504e-37   -36.197   -36.187     0.010     (0)  
   FeSO4+          0.000e+00   0.000e+00   -54.203   -54.309    -0.105     (0)  
   Fe(SO4)2-       0.000e+00   0.000e+00   -79.516   -79.622    -0.107     (0)  

------------------------------Saturation indices-------------------------------

  Phase               SI** log IAP   log K(298 K,   1 atm)

  Fe(OH)2.7Cl0.3   -7.12    -10.16   -3.04  Fe(OH)2.7Cl0.3
  Fe2(SO4)3      -146.85   -143.27    3.58  Fe2(SO4)3
  Fe3(OH)8        -30.69    -10.47   20.22  Fe3(OH)8
  Ferrihydrite    -12.31     -7.42    4.89  Fe(OH)3
  FeS(ppt)        -10.78    -14.69   -3.92  FeS
  Goethite         -7.92     -7.42    0.50  FeOOH
  Greigite        -45.60    -86.72  -41.13  Fe3S4
  Halite           -4.12     -2.54    1.58  NaCl
  Hematite        -10.83    -14.84   -4.01  Fe2O3
  Jarosite-H      -95.78   -107.88  -12.10  (H3O)Fe3(SO4)2(OH)6
  Jarosite-Na     -90.09   -101.29  -11.20  NaFe3(SO4)2(OH)6
  Lepidocrocite    -8.79     -7.42    1.37  FeOOH
  Mackinawite     -12.55    -14.69   -2.14  FeS
  Maghemite       -21.22    -14.84    6.39  Fe2O3
  Magnetite       -14.20    -10.46    3.74  Fe3O4
  Melanterite     -35.98    -38.45   -2.47  FeSO4:7H2O
  Mirabilite      -28.53    -29.64   -1.11  Na2SO4:10H2O
  NaCl             17.46     -2.54  -20.00  NaCl
  NaNO3           -76.01    -96.01  -20.00  NaNO3
  O2(g)           -78.16      4.96   83.12  O2
  pe_fix            6.76      6.76    0.00  e-
  pH_fix           -8.00     -8.00    0.00  H+
  Pyrite          -12.80    -31.28  -18.48  FeS2
  Pyrrhotite      -11.45    -14.69   -3.25  FeS
  Sulfur          -14.48    -16.59   -2.11  S
  Thenardite      -29.45    -29.63   -0.18  Na2SO4

**For a gas, SI = log10(fugacity). Fugacity = pressure * phi / 1 atm.
  For ideal gases, phi = 1.

Reaction step 7.

Using solution 1.	PURE WATER
Using pure phase assemblage 1.	
Using reaction 1.	

Reaction 1.	

	  1.000e-12 moles of the following reaction have been added:

	                 Relative
	Reactant            moles

	Fe1S3                1.00000

	                 Relative
	Element             moles
	Fe                   1.00000
	S                    3.00000

-------------------------------Phase assemblage--------------------------------

                                                      Moles in assemblage
Phase               SI  log IAP  log K(T, P)   Initial       Final       Delta

Greigite        -45.13   -86.26    -41.13    0.000e+00           0   0.000e+00
Mackinawite     -12.42   -14.56     -2.14    0.000e+00           0   0.000e+00
NaNO3           -76.01   -96.01    -20.00    0.000e+00           0   0.000e+00
Pyrite          -12.60   -31.08    -18.48    0.000e+00           0   0.000e+00
Pyrrhotite      -11.31   -14.56     -3.25    0.000e+00           0   0.000e+00
pH_fix           -8.00    -8.00      0.00
	 HCl                is reactant       9.902e+00   9.902e+00   2.824e-13
pe_fix            6.76     6.76      0.00
	 O2                 is reactant       1.010e+01   1.010e+01   5.951e-13

-----------------------------Solution composition------------------------------

	Elements           Molality       Moles

	Cl                9.809e-02   9.800e-02
	Fe                7.006e-12   7.000e-12
	N                 5.004e-02   5.000e-02
	Na                5.004e-02   5.000e-02
	S                 2.102e-11   2.100e-11

----------------------------Description of solution----------------------------

                                       pH  =   8.000      Charge balance
                                       pe  =  -6.760      Adjusted to redox equilibrium
                        Activity of water  =   0.997
                 Ionic strength (mol/kgw)  =   9.809e-02
                       Mass of water (kg)  =   9.991e-01
                 Total alkalinity (eq/kg)  =   1.999e-03
                         Temperature (°C)  =  25.00
                  Electrical balance (eq)  =   1.138e-16
 Percent error, 100*(Cat-|An|)/(Cat+|An|)  =   0.00
                               Iterations  =   3
                                  Total H  = 1.111109e+02
                                  Total O  = 5.545645e+01

----------------------------Distribution of species----------------------------

                                               Log       Log       Log    mole V
   Species          Molality    Activity  Molality  Activity     Gamma    cm³/mol

   OH-             1.312e-06   1.001e-06    -5.882    -5.999    -0.117     (0)  
   H+              1.210e-08   1.000e-08    -7.917    -8.000    -0.083      0.00
   H2O             5.551e+01   9.966e-01     1.744    -0.001     0.000     18.07
Cl            9.809e-02
   Cl-             9.809e-02   7.431e-02    -1.008    -1.129    -0.121     (0)  
   FeCl+2          2.657e-31   1.006e-31   -30.576   -30.998    -0.422     (0)  
   FeCl2+          4.256e-32   3.338e-32   -31.371   -31.476    -0.105     (0)  
   FeCl3           2.425e-34   2.481e-34   -33.615   -33.605     0.010     (0)  
Fe(2)         7.006e-12
   Fe+2            6.895e-12   2.776e-12   -11.161   -11.557    -0.395     (0)  
   FeOH+           1.115e-13   8.749e-14   -12.953   -13.058    -0.105     (0)  
   Fe(OH)2         7.256e-17   7.422e-17   -16.139   -16.129     0.010     (0)  
   Fe(OH)3-        3.504e-19   2.748e-19   -18.455   -18.561    -0.105     (0)  
   Fe(HS)2         2.413e-25   2.468e-25   -24.617   -24.608     0.010     (0)  
   Fe(HS)3-        3.432e-34   2.685e-34   -33.464   -33.571    -0.107     (0)  
   FeSO4           8.655e-37   8.852e-37   -36.063   -36.053     0.010     (0)  
Fe(3)         3.702e-21
   Fe(OH)4-        1.407e-21   1.111e-21   -20.852   -20.954    -0.103     (0)  
   Fe(OH)2+        1.206e-21   9.517e-22   -20.919   -21.021    -0.103     (0)  
   Fe(OH)3         1.090e-21   1.114e-21   -20.963   -20.953     0.010     (0)  
   FeOH+2          7.619e-26   2.884e-26   -25.118   -25.540    -0.422     (0)  
   FeCl+2          2.657e-31   1.006e-31   -30.576   -30.998    -0.422     (0)  
   Fe+3            2.500e-31   4.482e-32   -30.602   -31.349    -0.746     (0)  
   FeCl2+          4.256e-32   3.338e-32   -31.371   -31.476    -0.105     (0)  
   FeCl3           2.425e-34   2.481e-34   -33.615   -33.605     0.010     (0)  
   Fe2(OH)2+4      0.000e+00   0.000e+00   -47.944   -49.650    -1.706     (0)  
   FeSO4+          0.000e+00   0.000e+00   -54.069   -54.175    -0.105     (0)  
   Fe3(OH)4+5      0.000e+00   0.000e+00   -65.686   -68.352    -2.666     (0)  
   Fe(SO4)2-       0.000e+00   0.000e+00   -79.315   -79.421    -0.107     (0)  
H(0)          4.584e-06
   H2              2.292e-06   2.344e-06    -5.640    -5.630     0.010     (0)  
N(-3)         5.004e-02
   NH4+            4.805e-02   3.586e-02    -1.318    -1.445    -0.127     (0)  
   NH3             1.998e-03   2.044e-03    -2.699    -2.690     0.010     (0)  
   NH4SO4-         1.056e-27   8.284e-28   -26.976   -27.082    -0.105     (0)  
N(3)          0.000e+00
   NO2-            0.000e+00   0.000e+00   -68.409   -68.515    -0.107     (0)  
N(5)          0.000e+00
   NO3-            0.000e+00   0.000e+00   -94.485   -94.607    -0.122     (0)  
Na            5.004e-02
   Na+             5.004e-02   3.922e-02    -1.301    -1.406    -0.106     (0)  
   NaSO4-          4.465e-28   3.525e-28   -27.350   -27.453    -0.103     (0)  
O(0)          0.000e+00
   O2              0.000e+00   0.000e+00   -81.133   -81.123     0.010     (0)  
S(-2)         2.102e-11
   HS-             1.309e-11   9.988e-12   -10.883   -11.001    -0.117     (0)  
   H2S             8.538e-13   8.733e-13   -12.069   -12.059     0.010     (0)  
   S5-2            6.777e-13   2.538e-13   -12.169   -12.596    -0.427     (0)  
   S4-2            3.954e-13   1.481e-13   -12.403   -12.830    -0.427     (0)  
   S6-2            3.508e-13   1.314e-13   -12.455   -12.882    -0.427     (0)  
   S-2             3.187e-16   1.206e-16   -15.497   -15.919    -0.422     (0)  
   S3-2            1.393e-16   5.218e-17   -15.856   -16.283    -0.427     (0)  
   S2-2            7.907e-18   2.961e-18   -17.102   -17.529    -0.427     (0)  
   Fe(HS)2         2.413e-25   2.468e-25   -24.617   -24.608     0.010     (0)  
   Fe(HS)3-        3.432e-34   2.685e-34   -33.464   -33.571    -0.107     (0)  
S(6)          6.634e-27
   SO4-2           5.131e-27   1.793e-27   -26.290   -26.746    -0.457     (0)  
   NH4SO4-         1.056e-27   8.284e-28   -26.976   -27.082    -0.105     (0)  
   NaSO4-          4.465e-28   3.525e-28   -27.350   -27.453    -0.103     (0)  
   HSO4-           2.237e-33   1.740e-33   -32.650   -32.759    -0.109     (0)  
   FeSO4           8.655e-37   8.852e-37   -36.063   -36.053     0.010     (0)  
   FeSO4+          0.000e+00   0.000e+00   -54.069   -54.175    -0.105     (0)  
   Fe(SO4)2-       0.000e+00   0.000e+00   -79.315   -79.421    -0.107     (0)  

------------------------------Saturation indices-------------------------------

  Phase               SI** log IAP   log K(298 K,   1 atm)

  Fe(OH)2.7Cl0.3   -7.05    -10.09   -3.04  Fe(OH)2.7Cl0.3
  Fe2(SO4)3      -146.52   -142.94    3.58  Fe2(SO4)3
  Fe3(OH)8        -30.49    -10.27   20.22  Fe3(OH)8
  Ferrihydrite    -12.24     -7.35    4.89  Fe(OH)3
  FeS(ppt)        -10.64    -14.56   -3.92  FeS
  Goethite         -7.85     -7.35    0.50  FeOOH
  Greigite        -45.13    -86.26  -41.13  Fe3S4
  Halite           -4.12     -2.54    1.58  NaCl
  Hematite        -10.69    -14.70   -4.01  Fe2O3
  Jarosite-H      -95.45   -107.55  -12.10  (H3O)Fe3(SO4)2(OH)6
  Jarosite-Na     -89.75   -100.95  -11.20  NaFe3(SO4)2(OH)6
  Lepidocrocite    -8.72     -7.35    1.37  FeOOH
  Mackinawite     -12.42    -14.56   -2.14  FeS
  Maghemite       -21.09    -14.70    6.39  Fe2O3
  Magnetite       -14.00    -10.26    3.74  Fe3O4
  Melanterite     -35.84    -38.31   -2.47  FeSO4:7H2O
  Mirabilite      -28.46    -29.57   -1.11  Na2SO4:10H2O
  NaCl             17.46     -2.54  -20.00  NaCl
  NaNO3           -76.01    -96.01  -20.00  NaNO3
  O2(g)           -78.16      4.96   83.12  O2
  pe_fix            6.76      6.76    0.00  e-
  pH_fix           -8.00     -8.00    0.00  H+
  Pyrite          -12.60    -31.08  -18.48  FeS2
  Pyrrhotite      -11.31    -14.56   -3.25  FeS
  Sulfur          -14.41    -16.52   -2.11  S
  Thenardite      -29.38    -29.56   -0.18  Na2SO4

**For a gas, SI = log10(fugacity). Fugacity = pressure * phi / 1 atm.
  For ideal gases, phi = 1.

Reaction step 8.

Using solution 1.	PURE WATER
Using pure phase assemblage 1.	
Using reaction 1.	

Reaction 1.	

	  1.000e-12 moles of the following reaction have been added:

	                 Relative
	Reactant            moles

	Fe1S3                1.00000

	                 Relative
	Element             moles
	Fe                   1.00000
	S                    3.00000

-------------------------------Phase assemblage--------------------------------

                                                      Moles in assemblage
Phase               SI  log IAP  log K(T, P)   Initial       Final       Delta

Greigite        -44.72   -85.85    -41.13    0.000e+00           0   0.000e+00
Mackinawite     -12.30   -14.44     -2.14    0.000e+00           0   0.000e+00
NaNO3           -76.01   -96.01    -20.00    0.000e+00           0   0.000e+00
Pyrite          -12.42   -30.90    -18.48    0.000e+00           0   0.000e+00
Pyrrhotite      -11.20   -14.44     -3.25    0.000e+00           0   0.000e+00
pH_fix           -8.00    -8.00      0.00
	 HCl                is reactant       9.902e+00   9.902e+00   2.824e-13
pe_fix            6.76     6.76      0.00
	 O2                 is reactant       1.010e+01   1.010e+01   5.969e-13

-----------------------------Solution composition------------------------------

	Elements           Molality       Moles

	Cl                9.809e-02   9.800e-02
	Fe                8.007e-12   8.000e-12
	N                 5.004e-02   5.000e-02
	Na                5.004e-02   5.000e-02
	S                 2.402e-11   2.400e-11

----------------------------Description of solution----------------------------

                                       pH  =   8.000      Charge balance
                                       pe  =  -6.760      Adjusted to redox equilibrium
                        Activity of water  =   0.997
                 Ionic strength (mol/kgw)  =   9.809e-02
                       Mass of water (kg)  =   9.991e-01
                 Total alkalinity (eq/kg)  =   1.999e-03
                         Temperature (°C)  =  25.00
                  Electrical balance (eq)  =   1.094e-16
 Percent error, 100*(Cat-|An|)/(Cat+|An|)  =   0.00
                               Iterations  =   3
                                  Total H  = 1.111109e+02
                                  Total O  = 5.545645e+01

----------------------------Distribution of species----------------------------

                                               Log       Log       Log    mole V
   Species          Molality    Activity  Molality  Activity     Gamma    cm³/mol

   OH-             1.312e-06   1.001e-06    -5.882    -5.999    -0.117     (0)  
   H+              1.210e-08   1.000e-08    -7.917    -8.000    -0.083      0.00
   H2O             5.551e+01   9.966e-01     1.744    -0.001     0.000     18.07
Cl            9.809e-02
   Cl-             9.809e-02   7.431e-02    -1.008    -1.129    -0.121     (0)  
   FeCl+2          3.037e-31   1.149e-31   -30.518   -30.940    -0.422     (0)  
   FeCl2+          4.864e-32   3.815e-32   -31.313   -31.418    -0.105     (0)  
   FeCl3           2.772e-34   2.835e-34   -33.557   -33.547     0.010     (0)  
Fe(2)         8.007e-12
   Fe+2            7.880e-12   3.173e-12   -11.103   -11.499    -0.395     (0)  
   FeOH+           1.275e-13   9.999e-14   -12.895   -13.000    -0.105     (0)  
   Fe(OH)2         8.293e-17   8.482e-17   -16.081   -16.072     0.010     (0)  
   Fe(OH)3-        4.004e-19   3.141e-19   -18.397   -18.503    -0.105     (0)  
   Fe(HS)2         3.602e-25   3.685e-25   -24.443   -24.434     0.010     (0)  
   Fe(HS)3-        5.855e-34   4.580e-34   -33.232   -33.339    -0.107     (0)  
   FeSO4           1.130e-36   1.156e-36   -35.947   -35.937     0.010     (0)  
Fe(3)         4.231e-21
   Fe(OH)4-        1.608e-21   1.269e-21   -20.794   -20.896    -0.103     (0)  
   Fe(OH)2+        1.378e-21   1.088e-21   -20.861   -20.964    -0.103     (0)  
   Fe(OH)3         1.245e-21   1.274e-21   -20.905   -20.895     0.010     (0)  
   FeOH+2          8.707e-26   3.296e-26   -25.060   -25.482    -0.422     (0)  
   FeCl+2          3.037e-31   1.149e-31   -30.518   -30.940    -0.422     (0)  
   Fe+3            2.857e-31   5.122e-32   -30.544   -31.291    -0.746     (0)  
   FeCl2+          4.864e-32   3.815e-32   -31.313   -31.418    -0.105     (0)  
   FeCl3           2.772e-34   2.835e-34   -33.557   -33.547     0.010     (0)  
   Fe2(OH)2+4      0.000e+00   0.000e+00   -47.828   -49.534    -1.706     (0)  
   FeSO4+          0.000e+00   0.000e+00   -53.953   -54.059    -0.105     (0)  
   Fe3(OH)4+5      0.000e+00   0.000e+00   -65.512   -68.178    -2.666     (0)  
   Fe(SO4)2-       0.000e+00   0.000e+00   -79.141   -79.247    -0.107     (0)  
H(0)          4.584e-06
   H2              2.292e-06   2.344e-06    -5.640    -5.630     0.010     (0)  
N(-3)         5.004e-02
   NH4+            4.805e-02   3.586e-02    -1.318    -1.445    -0.127     (0)  
   NH3             1.998e-03   2.044e-03    -2.699    -2.690     0.010     (0)  
   NH4SO4-         1.207e-27   9.467e-28   -26.918   -27.024    -0.105     (0)  
N(3)          0.000e+00
   NO2-            0.000e+00   0.000e+00   -68.409   -68.515    -0.107     (0)  
N(5)          0.000e+00
   NO3-            0.000e+00   0.000e+00   -94.485   -94.607    -0.122     (0)  
Na            5.004e-02
   Na+             5.004e-02   3.922e-02    -1.301    -1.406    -0.106     (0)  
   NaSO4-          5.103e-28   4.029e-28   -27.292   -27.395    -0.103     (0)  
O(0)          0.000e+00
   O2              0.000e+00   0.000e+00   -81.133   -81.123     0.010     (0)  
S(-2)         2.402e-11
   HS-             1.496e-11   1.142e-11   -10.825   -10.943    -0.117     (0)  
   H2S             9.758e-13   9.981e-13   -12.011   -12.001     0.010     (0)  
   S5-2            7.745e-13   2.901e-13   -12.111   -12.538    -0.427     (0)  
   S4-2            4.519e-13   1.692e-13   -12.345   -12.772    -0.427     (0)  
   S6-2            4.009e-13   1.501e-13   -12.397   -12.824    -0.427     (0)  
   S-2             3.642e-16   1.379e-16   -15.439   -15.861    -0.422     (0)  
   S3-2            1.592e-16   5.963e-17   -15.798   -16.225    -0.427     (0)  
   S2-2            9.037e-18   3.384e-18   -17.044   -17.471    -0.427     (0)  
   Fe(HS)2         3.602e-25   3.685e-25   -24.443   -24.434     0.010     (0)  
   Fe(HS)3-        5.855e-34   4.580e-34   -33.232   -33.339    -0.107     (0)  
S(6)          7.582e-27
   SO4-2           5.864e-27   2.049e-27   -26.232   -26.688    -0.457     (0)  
   NH4SO4-         1.207e-27   9.467e-28   -26.918   -27.024    -0.105     (0)  
   NaSO4-          5.103e-28   4.029e-28   -27.292   -27.395    -0.103     (0)  
   HSO4-           2.557e-33   1.989e-33   -32.592   -32.701    -0.109     (0)  
   FeSO4           1.130e-36   1.156e-36   -35.947   -35.937     0.010     (0)  
   FeSO4+          0.000e+00   0.000e+00   -53.953   -54.059    -0.105     (0)  
   Fe(SO4)2-       0.000e+00   0.000e+00   -79.141   -79.247    -0.107     (0)  

------------------------------Saturation indices-------------------------------

  Phase               SI** log IAP   log K(298 K,   1 atm)

  Fe(OH)2.7Cl0.3   -6.99    -10.03   -3.04  Fe(OH)2.7Cl0.3
  Fe2(SO4)3      -146.23   -142.65    3.58  Fe2(SO4)3
  Fe3(OH)8        -30.31    -10.09   20.22  Fe3(OH)8
  Ferrihydrite    -12.19     -7.29    4.89  Fe(OH)3
  FeS(ppt)        -10.53    -14.44   -3.92  FeS
  Goethite         -7.79     -7.29    0.50  FeOOH
  Greigite        -44.72    -85.85  -41.13  Fe3S4
  Halite           -4.12     -2.54    1.58  NaCl
  Hematite        -10.58    -14.59   -4.01  Fe2O3
  Jarosite-H      -95.16   -107.26  -12.10  (H3O)Fe3(SO4)2(OH)6
  Jarosite-Na     -89.46   -100.66  -11.20  NaFe3(SO4)2(OH)6
  Lepidocrocite    -8.66     -7.29    1.37  FeOOH
  Mackinawite     -12.30    -14.44   -2.14  FeS
  Maghemite       -20.97    -14.59    6.39  Fe2O3
  Magnetite       -13.82    -10.09    3.74  Fe3O4
  Melanterite     -35.73    -38.20   -2.47  FeSO4:7H2O
  Mirabilite      -28.40    -29.52   -1.11  Na2SO4:10H2O
  NaCl             17.46     -2.54  -20.00  NaCl
  NaNO3           -76.01    -96.01  -20.00  NaNO3
  O2(g)           -78.16      4.96   83.12  O2
  pe_fix            6.76      6.76    0.00  e-
  pH_fix           -8.00     -8.00    0.00  H+
  Pyrite          -12.42    -30.90  -18.48  FeS2
  Pyrrhotite      -11.20    -14.44   -3.25  FeS
  Sulfur          -14.35    -16.46   -2.11  S
  Thenardite      -29.32    -29.50   -0.18  Na2SO4

**For a gas, SI = log10(fugacity). Fugacity = pressure * phi / 1 atm.
  For ideal gases, phi = 1.

Reaction step 9.

Using solution 1.	PURE WATER
Using pure phase assemblage 1.	
Using reaction 1.	

Reaction 1.	

	  1.000e-12 moles of the following reaction have been added:

	                 Relative
	Reactant            moles

	Fe1S3                1.00000

	                 Relative
	Element             moles
	Fe                   1.00000
	S                    3.00000

-------------------------------Phase assemblage--------------------------------

                                                      Moles in assemblage
Phase               SI  log IAP  log K(T, P)   Initial       Final       Delta

Greigite        -44.36   -85.49    -41.13    0.000e+00           0   0.000e+00
Mackinawite     -12.20   -14.34     -2.14    0.000e+00           0   0.000e+00
NaNO3           -76.01   -96.01    -20.00    0.000e+00           0   0.000e+00
Pyrite          -12.27   -30.75    -18.48    0.000e+00           0   0.000e+00
Pyrrhotite      -11.09   -14.34     -3.25    0.000e+00           0   0.000e+00
pH_fix           -8.00    -8.00      0.00
	 HCl                is reactant       9.902e+00   9.902e+00   2.824e-13
pe_fix            6.76     6.76      0.00
	 O2                 is reactant       1.010e+01   1.010e+01   5.969e-13

-----------------------------Solution composition------------------------------

	Elements           Molality       Moles

	Cl                9.809e-02   9.800e-02
	Fe                9.008e-12   9.000e-12
	N                 5.004e-02   5.000e-02
	Na                5.004e-02   5.000e-02
	S                 2.702e-11   2.700e-11

----------------------------Description of solution----------------------------

                                       pH  =   8.000      Charge balance
                                       pe  =  -6.760      Adjusted to redox equilibrium
                        Activity of water  =   0.997
                 Ionic strength (mol/kgw)  =   9.809e-02
                       Mass of water (kg)  =   9.991e-01
                 Total alkalinity (eq/kg)  =   1.999e-03
                         Temperature (°C)  =  25.00
                  Electrical balance (eq)  =   1.327e-16
 Percent error, 100*(Cat-|An|)/(Cat+|An|)  =   0.00
                               Iterations  =   3
                                  Total H  = 1.111109e+02
                                  Total O  = 5.545645e+01

----------------------------Distribution of species----------------------------

                                               Log       Log       Log    mole V
   Species          Molality    Activity  Molality  Activity     Gamma    cm³/mol

   OH-             1.312e-06   1.001e-06    -5.882    -5.999    -0.117     (0)  
   H+              1.210e-08   1.000e-08    -7.917    -8.000    -0.083      0.00
   H2O             5.551e+01   9.966e-01     1.744    -0.001     0.000     18.07
Cl            9.809e-02
[...]
   NaSO4-          1.923e-18   1.511e-18   -17.716   -17.821    -0.105     (0)  
   HSO4-           9.677e-24   7.485e-24   -23.014   -23.126    -0.112     (0)  
   FeSO4           7.975e-34   8.169e-34   -33.098   -33.088     0.010     (0)  
   FeSO4+          0.000e+00   0.000e+00   -51.102   -51.210    -0.108     (0)  
   Fe(SO4)2-       0.000e+00   0.000e+00   -66.714   -66.823    -0.109     (0)  

------------------------------Saturation indices-------------------------------

  Phase               SI** log IAP   log K(298 K,   1 atm)

  Fe(OH)2.7Cl0.3  -13.88    -16.92   -3.04  Fe(OH)2.7Cl0.3
  Fe2(SO4)3      -130.95   -127.37    3.58  Fe2(SO4)3
  Fe3(OH)8        -50.49    -30.27   20.22  Fe3(OH)8
  Ferrihydrite    -18.91    -14.02    4.89  Fe(OH)3
  FeS(ppt)         -7.68    -11.59   -3.92  FeS
  Goethite        -14.52    -14.02    0.50  FeOOH
  Greigite        -26.60    -67.73  -41.13  Fe3S4
  Halite           -4.65     -3.07    1.58  NaCl
  Hematite        -24.03    -28.04   -4.01  Fe2O3
  Jarosite-H      -96.19   -108.29  -12.10  (H3O)Fe3(SO4)2(OH)6
  Jarosite-Na     -90.49   -101.69  -11.20  NaFe3(SO4)2(OH)6
  Lepidocrocite   -15.39    -14.02    1.37  FeOOH
  Mackinawite      -9.45    -11.59   -2.14  FeS
  Maghemite       -34.42    -28.04    6.39  Fe2O3
  Magnetite       -34.00    -30.26    3.74  Fe3O4
  Melanterite     -32.88    -35.35   -2.47  FeSO4:7H2O
  Mirabilite      -18.83    -19.94   -1.11  Na2SO4:10H2O
  NaCl             16.93     -3.07  -20.00  NaCl
  NaNO3           -76.02    -96.02  -20.00  NaNO3
  O2(g)           -78.16      4.96   83.12  O2
  pe_fix            6.76      6.76    0.00  e-
  pH_fix           -8.00     -8.00    0.00  H+
  Pyrite            0.00    -18.48  -18.48  FeS2
  Pyrrhotite       -8.35    -11.59   -3.25  FeS
  Sulfur           -4.78     -6.89   -2.11  S
  Thenardite      -19.75    -19.93   -0.18  Na2SO4

**For a gas, SI = log10(fugacity). Fugacity = pressure * phi / 1 atm.
  For ideal gases, phi = 1.

Reaction step 109.

Using solution 1.	PURE WATER
Using pure phase assemblage 1.	
Using reaction 1.	

Reaction 1.	

	  1.000e-02 moles of the following reaction have been added:

	                 Relative
	Reactant            moles

	Fe1S3                1.00000

	                 Relative
	Element             moles
	Fe                   1.00000
	S                    3.00000

-------------------------------Phase assemblage--------------------------------

                                                      Moles in assemblage
Phase               SI  log IAP  log K(T, P)   Initial       Final       Delta

Greigite        -26.69   -67.82    -41.13    0.000e+00           0   0.000e+00
Mackinawite      -9.50   -11.64     -2.14    0.000e+00           0   0.000e+00
NaNO3           -76.02   -96.02    -20.00    0.000e+00           0   0.000e+00
Pyrite            0.00   -18.48    -18.48    9.111e-02   1.011e-01   1.000e-02
Pyrrhotite       -8.39   -11.64     -3.25    0.000e+00           0   0.000e+00
pH_fix           -8.00    -8.00      0.00
	 HCl                is reactant       9.971e+00   9.979e+00   7.557e-03
pe_fix            6.76     6.76      0.00
	 O2                 is reactant       1.013e+01   1.014e+01   3.633e-03

-----------------------------Solution composition------------------------------

	Elements           Molality       Moles

	Cl                2.153e-02   2.148e-02
	Fe                7.482e-12   7.466e-12
	N                 5.011e-02   5.000e-02
	Na                5.011e-02   5.000e-02
	S                 1.013e-01   1.011e-01

----------------------------Description of solution----------------------------

                                       pH  =   8.000      Charge balance
                                       pe  =  -6.760      Adjusted to redox equilibrium
                        Activity of water  =   0.997
                 Ionic strength (mol/kgw)  =   1.052e-01
                       Mass of water (kg)  =   9.978e-01
                 Total alkalinity (eq/kg)  =   7.869e-02
                         Temperature (°C)  =  25.00
                  Electrical balance (eq)  =  -7.605e-11
 Percent error, 100*(Cat-|An|)/(Cat+|An|)  =  -0.00
                               Iterations  =   4
                                  Total H  = 1.110344e+02
                                  Total O  = 5.538277e+01

----------------------------Distribution of species----------------------------

                                               Log       Log       Log    mole V
   Species          Molality    Activity  Molality  Activity     Gamma    cm³/mol

   OH-             1.321e-06   1.001e-06    -5.879    -5.999    -0.120     (0)  
   H+              1.215e-08   1.000e-08    -7.916    -8.000    -0.084      0.00
   H2O             5.551e+01   9.967e-01     1.744    -0.001     0.000     18.07
Cl            2.153e-02
   Cl-             2.153e-02   1.619e-02    -1.667    -1.791    -0.124     (0)  
   FeCl+2          1.033e-38   3.824e-39   -37.986   -38.417    -0.432     (0)  
   FeCl2+          3.546e-40   2.766e-40   -39.450   -39.558    -0.108     (0)  
   FeCl3           0.000e+00   0.000e+00   -42.359   -42.349     0.011     (0)  
Fe(2)         7.482e-12
   Fe(HS)3-        6.526e-12   5.080e-12   -11.185   -11.294    -0.109     (0)  
   Fe(HS)2         9.561e-13   9.795e-13   -12.020   -12.009     0.011     (0)  
   Fe+2            1.227e-18   4.845e-19   -17.911   -18.315    -0.404     (0)  
   FeOH+           1.958e-20   1.527e-20   -19.708   -19.816    -0.108     (0)  
   Fe(OH)2         1.264e-23   1.295e-23   -22.898   -22.888     0.011     (0)  
   Fe(OH)3-        6.150e-26   4.797e-26   -25.211   -25.319    -0.108     (0)  
   FeSO4           7.192e-34   7.368e-34   -33.143   -33.133     0.011     (0)  
Fe(3)         6.483e-28
   Fe(OH)4-        2.469e-28   1.939e-28   -27.607   -27.712    -0.105     (0)  
   Fe(OH)2+        2.115e-28   1.661e-28   -27.675   -27.780    -0.105     (0)  
   Fe(OH)3         1.899e-28   1.945e-28   -27.722   -27.711     0.011     (0)  
   FeOH+2          1.360e-32   5.033e-33   -31.866   -32.298    -0.432     (0)  
   Fe+3            4.501e-38   7.822e-39   -37.347   -38.107    -0.760     (0)  
   FeCl+2          1.033e-38   3.824e-39   -37.986   -38.417    -0.432     (0)  
   FeCl2+          3.546e-40   2.766e-40   -39.450   -39.558    -0.108     (0)  
   FeCl3           0.000e+00   0.000e+00   -42.359   -42.349     0.011     (0)  
   FeSO4+          0.000e+00   0.000e+00   -51.147   -51.255    -0.108     (0)  
   Fe2(OH)2+4      0.000e+00   0.000e+00   -61.425   -63.166    -1.741     (0)  
   Fe(SO4)2-       0.000e+00   0.000e+00   -66.714   -66.823    -0.109     (0)  
   Fe3(OH)4+5      0.000e+00   0.000e+00   -85.906   -88.626    -2.720     (0)  
H(0)          4.576e-06
   H2              2.288e-06   2.344e-06    -5.641    -5.630     0.011     (0)  
N(-3)         5.011e-02
   NH4+            4.813e-02   3.563e-02    -1.318    -1.448    -0.131     (0)  
   NH3             1.982e-03   2.030e-03    -2.703    -2.692     0.011     (0)  
   NH4SO4-         5.032e-18   3.925e-18   -17.298   -17.406    -0.108     (0)  
N(3)          0.000e+00
   NO2-            0.000e+00   0.000e+00   -68.409   -68.518    -0.109     (0)  
N(5)          0.000e+00
   NO3-            0.000e+00   0.000e+00   -94.484   -94.610    -0.125     (0)  
Na            5.011e-02
   Na+             5.011e-02   3.907e-02    -1.300    -1.408    -0.108     (0)  
   NaSO4-          2.133e-18   1.675e-18   -17.671   -17.776    -0.105     (0)  
O(0)          0.000e+00
   O2              0.000e+00   0.000e+00   -81.133   -81.123     0.011     (0)  
S(-2)         1.013e-01
   HS-             6.285e-02   4.763e-02    -1.202    -1.322    -0.120     (0)  
   H2S             4.065e-03   4.164e-03    -2.391    -2.380     0.011     (0)  
   S5-2            3.297e-03   1.210e-03    -2.482    -2.917    -0.435     (0)  
   S4-2            1.923e-03   7.061e-04    -2.716    -3.151    -0.435     (0)  
   S6-2            1.706e-03   6.264e-04    -2.768    -3.203    -0.435     (0)  
   S-2             1.554e-06   5.752e-07    -5.808    -6.240    -0.432     (0)  
   S3-2            6.777e-07   2.488e-07    -6.169    -6.604    -0.435     (0)  
   S2-2            3.847e-08   1.412e-08    -7.415    -7.850    -0.435     (0)  
   Fe(HS)3-        6.526e-12   5.080e-12   -11.185   -11.294    -0.109     (0)  
   Fe(HS)2         9.561e-13   9.795e-13   -12.020   -12.009     0.011     (0)  
S(6)          3.229e-17
   SO4-2           2.513e-17   8.552e-18   -16.600   -17.068    -0.468     (0)  
   NH4SO4-         5.032e-18   3.925e-18   -17.298   -17.406    -0.108     (0)  
   NaSO4-          2.133e-18   1.675e-18   -17.671   -17.776    -0.105     (0)  
   HSO4-           1.074e-23   8.299e-24   -22.969   -23.081    -0.112     (0)  
   FeSO4           7.192e-34   7.368e-34   -33.143   -33.133     0.011     (0)  
   FeSO4+          0.000e+00   0.000e+00   -51.147   -51.255    -0.108     (0)  
   Fe(SO4)2-       0.000e+00   0.000e+00   -66.714   -66.823    -0.109     (0)  

------------------------------Saturation indices-------------------------------

  Phase               SI** log IAP   log K(298 K,   1 atm)

  Fe(OH)2.7Cl0.3  -14.01    -17.05   -3.04  Fe(OH)2.7Cl0.3
  Fe2(SO4)3      -131.00   -127.42    3.58  Fe2(SO4)3
  Fe3(OH)8        -50.76    -30.54   20.22  Fe3(OH)8
  Ferrihydrite    -19.00    -14.11    4.89  Fe(OH)3
  FeS(ppt)         -7.72    -11.64   -3.92  FeS
  Goethite        -14.61    -14.11    0.50  FeOOH
  Greigite        -26.69    -67.82  -41.13  Fe3S4
  Halite           -4.78     -3.20    1.58  NaCl
  Hematite        -24.21    -28.22   -4.01  Fe2O3
  Jarosite-H      -96.37   -108.47  -12.10  (H3O)Fe3(SO4)2(OH)6
  Jarosite-Na     -90.67   -101.87  -11.20  NaFe3(SO4)2(OH)6
  Lepidocrocite   -15.48    -14.11    1.37  FeOOH
  Mackinawite      -9.50    -11.64   -2.14  FeS
  Maghemite       -34.60    -28.22    6.39  Fe2O3
  Magnetite       -34.27    -30.53    3.74  Fe3O4
  Melanterite     -32.92    -35.39   -2.47  FeSO4:7H2O
  Mirabilite      -18.78    -19.90   -1.11  Na2SO4:10H2O
  NaCl             16.80     -3.20  -20.00  NaCl
  NaNO3           -76.02    -96.02  -20.00  NaNO3
  O2(g)           -78.16      4.96   83.12  O2
  pe_fix            6.76      6.76    0.00  e-
  pH_fix           -8.00     -8.00    0.00  H+
  Pyrite            0.00    -18.48  -18.48  FeS2
  Pyrrhotite       -8.39    -11.64   -3.25  FeS
  Sulfur           -4.73     -6.84   -2.11  S
  Thenardite      -19.71    -19.88   -0.18  Na2SO4

**For a gas, SI = log10(fugacity). Fugacity = pressure * phi / 1 atm.
  For ideal gases, phi = 1.

Reaction step 110.

Using solution 1.	PURE WATER
Using pure phase assemblage 1.	
Using reaction 1.	

Reaction 1.	

	  1.000e-02 moles of the following reaction have been added:

	                 Relative
	Reactant            moles

	Fe1S3                1.00000

	                 Relative
	Element             moles
	Fe                   1.00000
	S                    3.00000

-------------------------------Phase assemblage--------------------------------

                                                      Moles in assemblage
Phase               SI  log IAP  log K(T, P)   Initial       Final       Delta

Greigite        -26.77   -67.90    -41.13    0.000e+00           0   0.000e+00
Mackinawite      -9.54   -11.68     -2.14    0.000e+00           0   0.000e+00
NaNO3           -76.02   -96.02    -20.00    0.000e+00           0   0.000e+00
Pyrite            0.00   -18.48    -18.48    1.011e-01   1.111e-01   1.000e-02
Pyrrhotite       -8.43   -11.68     -3.25    0.000e+00           0   0.000e+00
pH_fix           -8.00    -8.00      0.00
	 HCl                is reactant       9.979e+00   9.986e+00   7.554e-03
pe_fix            6.76     6.76      0.00
	 O2                 is reactant       1.014e+01   1.014e+01   3.631e-03

-----------------------------Solution composition------------------------------

	Elements           Molality       Moles

	Cl                1.396e-02   1.393e-02
	Fe                8.124e-12   8.105e-12
	N                 5.012e-02   5.000e-02
	Na                5.012e-02   5.000e-02
	S                 1.114e-01   1.111e-01

----------------------------Description of solution----------------------------

                                       pH  =   8.000      Charge balance
                                       pe  =  -6.760      Adjusted to redox equilibrium
                        Activity of water  =   0.997
                 Ionic strength (mol/kgw)  =   1.059e-01
                       Mass of water (kg)  =   9.976e-01
                 Total alkalinity (eq/kg)  =   8.628e-02
                         Temperature (°C)  =  25.00
                  Electrical balance (eq)  =  -7.605e-11
 Percent error, 100*(Cat-|An|)/(Cat+|An|)  =  -0.00
                               Iterations  =   5
                                  Total H  = 1.110268e+02
                                  Total O  = 5.537551e+01

----------------------------Distribution of species----------------------------

                                               Log       Log       Log    mole V
   Species          Molality    Activity  Molality  Activity     Gamma    cm³/mol

   OH-             1.322e-06   1.001e-06    -5.879    -5.999    -0.121     (0)  
   H+              1.215e-08   1.000e-08    -7.915    -8.000    -0.085      0.00
   H2O             5.551e+01   9.967e-01     1.744    -0.001     0.000     18.07
Cl            1.396e-02
   Cl-             1.396e-02   1.049e-02    -1.855    -1.979    -0.124     (0)  
   FeCl+2          5.567e-39   2.056e-39   -38.254   -38.687    -0.433     (0)  
   FeCl2+          1.236e-40   0.000e+00   -39.908   -40.016    -0.108     (0)  
   FeCl3           0.000e+00   0.000e+00   -43.006   -42.995     0.011     (0)  
Fe(2)         8.124e-12
   Fe(HS)3-        7.168e-12   5.577e-12   -11.145   -11.254    -0.109     (0)  
   Fe(HS)2         9.559e-13   9.795e-13   -12.020   -12.009     0.011     (0)  
   Fe+2            1.020e-18   4.020e-19   -17.991   -18.396    -0.404     (0)  
   FeOH+           1.625e-20   1.267e-20   -19.789   -19.897    -0.108     (0)  
   Fe(OH)2         1.049e-23   1.075e-23   -22.979   -22.969     0.011     (0)  
   Fe(OH)3-        5.105e-26   3.980e-26   -25.292   -25.400    -0.108     (0)  
   FeSO4           6.550e-34   6.711e-34   -33.184   -33.173     0.011     (0)  
Fe(3)         5.381e-28
   Fe(OH)4-        2.049e-28   1.608e-28   -27.688   -27.794    -0.105     (0)  
   Fe(OH)2+        1.756e-28   1.378e-28   -27.755   -27.861    -0.105     (0)  
   Fe(OH)3         1.575e-28   1.614e-28   -27.803   -27.792     0.011     (0)  
   FeOH+2          1.131e-32   4.176e-33   -31.947   -32.379    -0.433     (0)  
   Fe+3            3.745e-38   6.489e-39   -37.427   -38.188    -0.761     (0)  
   FeCl+2          5.567e-39   2.056e-39   -38.254   -38.687    -0.433     (0)  
   FeCl2+          1.236e-40   0.000e+00   -39.908   -40.016    -0.108     (0)  
   FeCl3           0.000e+00   0.000e+00   -43.006   -42.995     0.011     (0)  
   FeSO4+          0.000e+00   0.000e+00   -51.187   -51.295    -0.108     (0)  
   Fe2(OH)2+4      0.000e+00   0.000e+00   -61.584   -63.328    -1.744     (0)  
   Fe(SO4)2-       0.000e+00   0.000e+00   -66.714   -66.823    -0.109     (0)  
   Fe3(OH)4+5      0.000e+00   0.000e+00   -86.144   -88.869    -2.725     (0)  
H(0)          4.576e-06
   H2              2.288e-06   2.344e-06    -5.641    -5.630     0.011     (0)  
N(-3)         5.012e-02
   NH4+            4.814e-02   3.561e-02    -1.318    -1.448    -0.131     (0)  
   NH3             1.980e-03   2.029e-03    -2.703    -2.693     0.011     (0)  
   NH4SO4-         5.525e-18   4.307e-18   -17.258   -17.366    -0.108     (0)  
N(3)          0.000e+00
   NO2-            0.000e+00   0.000e+00   -68.409   -68.518    -0.109     (0)  
N(5)          0.000e+00
   NO3-            0.000e+00   0.000e+00   -94.484   -94.610    -0.126     (0)  
Na            5.012e-02
   Na+             5.012e-02   3.906e-02    -1.300    -1.408    -0.108     (0)  
   NaSO4-          2.342e-18   1.838e-18   -17.630   -17.736    -0.105     (0)  
O(0)          0.000e+00
   O2              0.000e+00   0.000e+00   -81.133   -81.123     0.011     (0)  
S(-2)         1.114e-01
   HS-             6.905e-02   5.229e-02    -1.161    -1.282    -0.121     (0)  
   H2S             4.462e-03   4.572e-03    -2.351    -2.340     0.011     (0)  
   S5-2            3.626e-03   1.329e-03    -2.441    -2.877    -0.436     (0)  
   S4-2            2.116e-03   7.752e-04    -2.675    -3.111    -0.436     (0)  
   S6-2            1.877e-03   6.877e-04    -2.727    -3.163    -0.436     (0)  
   S-2             1.710e-06   6.315e-07    -5.767    -6.200    -0.433     (0)  
   S3-2            7.455e-07   2.732e-07    -6.128    -6.564    -0.436     (0)  
   S2-2            4.231e-08   1.550e-08    -7.374    -7.810    -0.436     (0)  
   Fe(HS)3-        7.168e-12   5.577e-12   -11.145   -11.254    -0.109     (0)  
   Fe(HS)2         9.559e-13   9.795e-13   -12.020   -12.009     0.011     (0)  
S(6)          3.553e-17
   SO4-2           2.766e-17   9.389e-18   -16.558   -17.027    -0.469     (0)  
   NH4SO4-         5.525e-18   4.307e-18   -17.258   -17.366    -0.108     (0)  
   NaSO4-          2.342e-18   1.838e-18   -17.630   -17.736    -0.105     (0)  
   HSO4-           1.179e-23   9.111e-24   -22.928   -23.040    -0.112     (0)  
   FeSO4           6.550e-34   6.711e-34   -33.184   -33.173     0.011     (0)  
   FeSO4+          0.000e+00   0.000e+00   -51.187   -51.295    -0.108     (0)  
   Fe(SO4)2-       0.000e+00   0.000e+00   -66.714   -66.823    -0.109     (0)  

------------------------------Saturation indices-------------------------------

  Phase               SI** log IAP   log K(298 K,   1 atm)

  Fe(OH)2.7Cl0.3  -14.15    -17.19   -3.04  Fe(OH)2.7Cl0.3
  Fe2(SO4)3      -131.04   -127.46    3.58  Fe2(SO4)3
  Fe3(OH)8        -51.00    -30.78   20.22  Fe3(OH)8
  Ferrihydrite    -19.08    -14.19    4.89  Fe(OH)3
  FeS(ppt)         -7.76    -11.68   -3.92  FeS
  Goethite        -14.69    -14.19    0.50  FeOOH
  Greigite        -26.77    -67.90  -41.13  Fe3S4
  Halite           -4.97     -3.39    1.58  NaCl
  Hematite        -24.37    -28.38   -4.01  Fe2O3
  Jarosite-H      -96.53   -108.63  -12.10  (H3O)Fe3(SO4)2(OH)6
  Jarosite-Na     -90.84   -102.04  -11.20  NaFe3(SO4)2(OH)6
  Lepidocrocite   -15.56    -14.19    1.37  FeOOH
  Mackinawite      -9.54    -11.68   -2.14  FeS
  Maghemite       -34.77    -28.38    6.39  Fe2O3
  Magnetite       -34.51    -30.78    3.74  Fe3O4
  Melanterite     -32.96    -35.43   -2.47  FeSO4:7H2O
  Mirabilite      -18.74    -19.86   -1.11  Na2SO4:10H2O
  NaCl             16.61     -3.39  -20.00  NaCl
  NaNO3           -76.02    -96.02  -20.00  NaNO3
  O2(g)           -78.16      4.96   83.12  O2
  pe_fix            6.76      6.76    0.00  e-
  pH_fix           -8.00     -8.00    0.00  H+
  Pyrite            0.00    -18.48  -18.48  FeS2
  Pyrrhotite       -8.43    -11.68   -3.25  FeS
  Sulfur           -4.69     -6.80   -2.11  S
  Thenardite      -19.67    -19.84   -0.18  Na2SO4

**For a gas, SI = log10(fugacity). Fugacity = pressure * phi / 1 atm.
  For ideal gases, phi = 1.

------------------
End of simulation.
------------------

------------------------------------
Reading input data for simulation 3.
------------------------------------

-------------------------------
End of Run after 1.066 Seconds.
-------------------------------

