   Input file: C:\Users\jt2020\OneDrive - Imperial College London\Data\Thermodynamics\Thermodynamics\Phreeq\Reaction Progress\Changing temp\HS-\HS-  pH 8, -400 mV S dom unfixed.pqi
  Output file: C:\Users\jt2020\OneDrive - Imperial College London\Data\Thermodynamics\Thermodynamics\Phreeq\Reaction Progress\Changing temp\HS-\HS-  pH 8, -400 mV S dom unfixed.pqo
Database file: C:\Users\jt2020\OneDrive - Imperial College London\Data\Thermodynamics\Thermodynamics\Phreeq\Reaction Progress\All models with pyrrhotite\Database\llnlpyrrminteq.dat

------------------
Reading data base.
------------------

	SOLUTION_MASTER_SPECIES
	SOLUTION_SPECIES
	SOLUTION_SPECIES
	PHASES
	SURFACE_MASTER_SPECIES
	SURFACE_SPECIES
	END
------------------------------------
Reading input data for simulation 1.
------------------------------------

	DATABASE C:\Users\jt2020\OneDrive - Imperial College London\Data\Thermodynamics\Thermodynamics\Phreeq\Reaction Progress\All models with pyrrhotite\Database\llnlpyrrminteq.dat
	TITLE HS- -400mV pH 8 RT
	SOLUTION 1  PURE WATER
	            pH    8 charge
	          temp   25.0
	           pe     -6.76       #-400 mV 
	PHASES
	       pH_fix
	                H + = H +
	                log_k = 0.0
	       pe_fix
	                e- = e-
	                log_k 0.0
	       Mackinawite   
	                FeS + H+ = Fe+2 + HS-
	                log_k          -2.1371
	                delta_h        -3.578 kcal
	       Pyrrhotite
	                FeS + H+ = Fe+2 + HS-
	                log_k     -3.24554
	                delta_h        -2.646 kcal
	        Greigite
	                Fe3S4 + 4H+ = 2Fe+3 + Fe+2 + 4HS-
	                log_k   -41.128
	                delta_h  42.2473      kcal
	        Pyrite
	                FeS2 + 2H+ + 2e- = Fe+2 + 2HS-
	                log_k          -18.479
	                delta_h        11.3    kcal
	END
-----
TITLE
-----

 HS- -400mV pH 8 RT

-------------------------------------------
Beginning of initial solution calculations.
-------------------------------------------

Initial solution 1.	PURE WATER

-----------------------------Solution composition------------------------------

	Elements           Molality       Moles

	Pure water     

----------------------------Description of solution----------------------------

                                       pH  =   6.999      Charge balance
                                       pe  =  -6.760    
                        Activity of water  =   1.000
                 Ionic strength (mol/kgw)  =   1.003e-07
                       Mass of water (kg)  =   1.000e+00
                 Total alkalinity (eq/kg)  =   4.513e-21
                         Temperature (°C)  =  25.00
                  Electrical balance (eq)  =  -4.513e-21
 Percent error, 100*(Cat-|An|)/(Cat+|An|)  =  -0.00
                               Iterations  =   6
                                  Total H  = 1.110129e+02
                                  Total O  = 5.550622e+01

----------------------------Distribution of species----------------------------

                                               Log       Log       Log    mole V
   Species          Molality    Activity  Molality  Activity     Gamma    cm³/mol

   OH-             1.003e-07   1.002e-07    -6.999    -6.999    -0.000     (0)  
   H+              1.003e-07   1.002e-07    -6.999    -6.999    -0.000      0.00
   H2O             5.551e+01   1.000e+00     1.744    -0.000     0.000     18.07
H(0)          4.710e-04
   H2              2.355e-04   2.355e-04    -3.628    -3.628     0.000     (0)  
O(0)          0.000e+00
   O2              0.000e+00   0.000e+00   -85.124   -85.124     0.000     (0)  

------------------------------Saturation indices-------------------------------

  Phase               SI** log IAP   log K(298 K,   1 atm)

  O2(g)           -82.16      0.96   83.12  O2
  pe_fix            6.76      6.76    0.00  e-
  pH_fix           -7.00     -7.00    0.00  H+

**For a gas, SI = log10(fugacity). Fugacity = pressure * phi / 1 atm.
  For ideal gases, phi = 1.

------------------
End of simulation.
------------------

------------------------------------
Reading input data for simulation 2.
------------------------------------

	INCREMENTAL_REACTIONS
	REACTION
	Fe1S3 1
	10*1e-12 10*1e-11 10*1e-10 10*1e-9 10*1e-8 10*1e-7 10*1e-6 10*1e-5 10*1e-4  10*1e-3  10*1e-2 mol
	USE solution 1
	EQUILIBRIUM_PHASES 1
	        Mackinawite     0.0     0.0
	        Pyrrhotite      0.0     0.0
	        Greigite        0.0     0.0
	        Pyrite          0.0     0.0
	USER_GRAPH 1 Simulation 6
	    -headings               Pyrite Greigite Mackinawite Pyrrhotite
	    -axis_titles            "Fe and S added, Log moles" "Mineral, moles"
	    -chart_title            "Sulphur dominant system with HS- as the oxidant. unfix -400mV at pH 8"
	    -axis_scale sy_axis     auto auto auto auto log
	    -initial_solutions      false
	    -connect_simulations    false
	    -axis_scale y_axis      auto auto auto auto Log
	    -axis_scale sy_axis	    auto auto auto auto Log
	    -plot_concentration_vs  x
	  -start
	 5 PUT(GET(1) + RXN, 1)
	  20 PLOT_XY log10(GET(1)), EQUI("Pyrite") color = Green, line_w = 0,   	symbol = Plus, symbol_size = 5, y_axis = 2
	  30 PLOT_XY log10(GET(1)), EQUI("Greigite") color = Blue, line_w = 0,   	symbol = Plus, symbol_size = 5, y_axis = 2
	  40 PLOT_XY log10(GET(1)), EQUI("Mackinawite") color = Cyan, line_w = 0,   	symbol = Plus, symbol_size = 5, y_axis = 2
	  60 PLOT_XY log10(GET(1)), EQUI("Pyrrhotite") color = Red, line_w = 0,   	symbol = Plus, symbol_size = 5, y_axis = 2
	  -end
	    -active                 true
	SELECTED_OUTPUT
	    file                 HS S both unbuffered RT.csv
	    saturation_indices   Mackinawite  Greigite  Pyrite Pyrrhotite
	    reaction             
	    totals               Fe S 
	    equilibrium_phases   Mackinawite  Greigite  Pyrite Pyrrhotite
	END
-----------------------------------------
Beginning of batch-reaction calculations.
-----------------------------------------

Reaction step 1.

Using solution 1.	PURE WATER
Using pure phase assemblage 1.	
Using reaction 1.	

Reaction 1.	

	  1.000e-12 moles of the following reaction have been added:

	                 Relative
	Reactant            moles

	Fe1S3                1.00000

	                 Relative
	Element             moles
	Fe                   1.00000
	S                    3.00000

-------------------------------Phase assemblage--------------------------------

                                                      Moles in assemblage
Phase               SI  log IAP  log K(T, P)   Initial       Final       Delta

Greigite        -53.68   -94.80    -41.13    0.000e+00           0   0.000e+00
Mackinawite     -14.67   -16.81     -2.14    0.000e+00           0   0.000e+00
Pyrite          -16.65   -35.13    -18.48    0.000e+00           0   0.000e+00
Pyrrhotite      -13.56   -16.81     -3.25    0.000e+00           0   0.000e+00

-----------------------------Solution composition------------------------------

	Elements           Molality       Moles

	Fe                1.000e-12   1.000e-12
	S                 3.000e-12   3.000e-12

----------------------------Description of solution----------------------------

                                       pH  =   6.999      Charge balance
                                       pe  =  -6.760      Adjusted to redox equilibrium
                        Activity of water  =   1.000
                 Ionic strength (mol/kgw)  =   1.003e-07
                       Mass of water (kg)  =   1.000e+00
                 Total alkalinity (eq/kg)  =   2.000e-12
                         Temperature (°C)  =  25.00
                  Electrical balance (eq)  =  -2.823e-21
 Percent error, 100*(Cat-|An|)/(Cat+|An|)  =  -0.00
                               Iterations  =   3
                                  Total H  = 1.110129e+02
                                  Total O  = 5.550622e+01

----------------------------Distribution of species----------------------------

                                               Log       Log       Log    mole V
   Species          Molality    Activity  Molality  Activity     Gamma    cm³/mol

   OH-             1.003e-07   1.002e-07    -6.999    -6.999    -0.000     (0)  
   H+              1.003e-07   1.002e-07    -6.999    -6.999    -0.000      0.00
   H2O             5.551e+01   1.000e+00     1.744    -0.000     0.000     18.07
Fe(2)         1.000e-12
   Fe+2            9.969e-13   9.954e-13   -12.001   -12.002    -0.001     (0)  
   FeOH+           3.142e-15   3.140e-15   -14.503   -14.503    -0.000     (0)  
   Fe(OH)2         2.667e-19   2.667e-19   -18.574   -18.574     0.000     (0)  
   Fe(OH)3-        9.889e-23   9.885e-23   -22.005   -22.005    -0.000     (0)  
   Fe(HS)2         2.204e-27   2.204e-27   -26.657   -26.657     0.000     (0)  
   Fe(HS)3-        3.785e-37   3.783e-37   -36.422   -36.422    -0.000     (0)  
   FeSO4           0.000e+00   0.000e+00   -46.303   -46.303     0.000     (0)  
Fe(3)         3.863e-24
   Fe(OH)2+        3.421e-24   3.420e-24   -23.466   -23.466    -0.000     (0)  
   Fe(OH)3         4.009e-25   4.009e-25   -24.397   -24.397     0.000     (0)  
   Fe(OH)4-        4.001e-26   3.999e-26   -25.398   -25.398    -0.000     (0)  
   FeOH+2          1.037e-27   1.035e-27   -26.984   -26.985    -0.001     (0)  
   Fe+3            1.612e-32   1.607e-32   -31.793   -31.794    -0.001     (0)  
   Fe2(OH)2+4      0.000e+00   0.000e+00   -52.537   -52.540    -0.003     (0)  
   FeSO4+          0.000e+00   0.000e+00   -64.425   -64.425    -0.000     (0)  
   Fe3(OH)4+5      0.000e+00   0.000e+00   -73.682   -73.686    -0.004     (0)  
   Fe(SO4)2-       0.000e+00   0.000e+00   -99.477   -99.477    -0.000     (0)  
H(0)          4.710e-04
   H2              2.355e-04   2.355e-04    -3.628    -3.628     0.000     (0)  
O(0)          0.000e+00
   O2              0.000e+00   0.000e+00   -85.124   -85.124     0.000     (0)  
S(-2)         3.000e-12
   HS-             1.577e-12   1.576e-12   -11.802   -11.802    -0.000     (0)  
   H2S             1.381e-12   1.381e-12   -11.860   -11.860     0.000     (0)  
   S5-2            4.002e-15   3.996e-15   -14.398   -14.398    -0.001     (0)  
   S4-2            2.335e-15   2.331e-15   -14.632   -14.632    -0.001     (0)  
   S6-2            2.071e-15   2.068e-15   -14.684   -14.684    -0.001     (0)  
   S-2             1.902e-18   1.899e-18   -17.721   -17.721    -0.001     (0)  
   S3-2            8.228e-19   8.215e-19   -18.085   -18.085    -0.001     (0)  
   S2-2            4.670e-20   4.663e-20   -19.331   -19.331    -0.001     (0)  
   Fe(HS)2         2.204e-27   2.204e-27   -26.657   -26.657     0.000     (0)  
   Fe(HS)3-        3.785e-37   3.783e-37   -36.422   -36.422    -0.000     (0)  
S(6)          2.814e-37
   SO4-2           2.814e-37   2.810e-37   -36.551   -36.551    -0.001     (0)  
   HSO4-           0.000e+00   0.000e+00   -41.563   -41.563    -0.000     (0)  
   FeSO4           0.000e+00   0.000e+00   -46.303   -46.303     0.000     (0)  
   FeSO4+          0.000e+00   0.000e+00   -64.425   -64.425    -0.000     (0)  
   Fe(SO4)2-       0.000e+00   0.000e+00   -99.477   -99.477    -0.000     (0)  

------------------------------Saturation indices-------------------------------

  Phase               SI** log IAP   log K(298 K,   1 atm)

  Fe2(SO4)3      -176.82   -173.24    3.58  Fe2(SO4)3
  Fe3(OH)8        -39.82    -19.60   20.22  Fe3(OH)8
  Ferrihydrite    -15.69    -10.80    4.89  Fe(OH)3
  FeS(ppt)        -12.89    -16.81   -3.92  FeS
  Goethite        -11.30    -10.80    0.50  FeOOH
  Greigite        -53.68    -94.80  -41.13  Fe3S4
  Hematite        -17.59    -21.59   -4.01  Fe2O3
  Jarosite-H     -121.39   -133.49  -12.10  (H3O)Fe3(SO4)2(OH)6
  Lepidocrocite   -12.17    -10.80    1.37  FeOOH
  Mackinawite     -14.67    -16.81   -2.14  FeS
  Maghemite       -27.98    -21.59    6.39  Fe2O3
  Magnetite       -23.34    -19.60    3.74  Fe3O4
  Melanterite     -46.08    -48.55   -2.47  FeSO4:7H2O
  O2(g)           -82.16      0.96   83.12  O2
  pe_fix            6.76      6.76    0.00  e-
  pH_fix           -7.00     -7.00    0.00  H+
  Pyrite          -16.65    -35.13  -18.48  FeS2
  Pyrrhotite      -13.56    -16.81   -3.25  FeS
  Sulfur          -16.21    -18.32   -2.11  S

**For a gas, SI = log10(fugacity). Fugacity = pressure * phi / 1 atm.
  For ideal gases, phi = 1.

Reaction step 2.

Using solution 1.	PURE WATER
Using pure phase assemblage 1.	
Using reaction 1.	

Reaction 1.	

	  1.000e-12 moles of the following reaction have been added:

	                 Relative
	Reactant            moles

	Fe1S3                1.00000

	                 Relative
	Element             moles
	Fe                   1.00000
	S                    3.00000

-------------------------------Phase assemblage--------------------------------

                                                      Moles in assemblage
Phase               SI  log IAP  log K(T, P)   Initial       Final       Delta

Greigite        -51.57   -92.70    -41.13    0.000e+00           0   0.000e+00
Mackinawite     -14.07   -16.20     -2.14    0.000e+00           0   0.000e+00
Pyrite          -15.75   -34.23    -18.48    0.000e+00           0   0.000e+00
Pyrrhotite      -12.96   -16.20     -3.25    0.000e+00           0   0.000e+00

-----------------------------Solution composition------------------------------

	Elements           Molality       Moles

	Fe                2.000e-12   2.000e-12
	S                 6.000e-12   6.000e-12

----------------------------Description of solution----------------------------

                                       pH  =   6.999      Charge balance
                                       pe  =  -6.760      Adjusted to redox equilibrium
                        Activity of water  =   1.000
                 Ionic strength (mol/kgw)  =   1.003e-07
                       Mass of water (kg)  =   1.000e+00
                 Total alkalinity (eq/kg)  =   4.000e-12
                         Temperature (°C)  =  25.00
                  Electrical balance (eq)  =  -2.831e-21
 Percent error, 100*(Cat-|An|)/(Cat+|An|)  =  -0.00
                               Iterations  =   5
                                  Total H  = 1.110129e+02
                                  Total O  = 5.550622e+01

----------------------------Distribution of species----------------------------

                                               Log       Log       Log    mole V
   Species          Molality    Activity  Molality  Activity     Gamma    cm³/mol

   OH-             1.003e-07   1.002e-07    -6.999    -6.999    -0.000     (0)  
   H+              1.003e-07   1.002e-07    -6.999    -6.999    -0.000      0.00
   H2O             5.551e+01   1.000e+00     1.744    -0.000     0.000     18.07
Fe(2)         2.000e-12
   Fe+2            1.994e-12   1.991e-12   -11.700   -11.701    -0.001     (0)  
   FeOH+           6.283e-15   6.281e-15   -14.202   -14.202    -0.000     (0)  
   Fe(OH)2         5.334e-19   5.334e-19   -18.273   -18.273     0.000     (0)  
   Fe(OH)3-        1.978e-22   1.977e-22   -21.704   -21.704    -0.000     (0)  
   Fe(HS)2         1.763e-26   1.763e-26   -25.754   -25.754     0.000     (0)  
   Fe(HS)3-        6.056e-36   6.053e-36   -35.218   -35.218    -0.000     (0)  
   FeSO4           0.000e+00   0.000e+00   -45.701   -45.701     0.000     (0)  
Fe(3)         7.726e-24
   Fe(OH)2+        6.842e-24   6.839e-24   -23.165   -23.165    -0.000     (0)  
   Fe(OH)3         8.017e-25   8.017e-25   -24.096   -24.096     0.000     (0)  
   Fe(OH)4-        8.002e-26   7.999e-26   -25.097   -25.097    -0.000     (0)  
   FeOH+2          2.073e-27   2.070e-27   -26.683   -26.684    -0.001     (0)  
   Fe+3            3.225e-32   3.214e-32   -31.492   -31.493    -0.001     (0)  
   Fe2(OH)2+4      0.000e+00   0.000e+00   -51.935   -51.938    -0.003     (0)  
   FeSO4+          0.000e+00   0.000e+00   -63.823   -63.823    -0.000     (0)  
   Fe3(OH)4+5      0.000e+00   0.000e+00   -72.779   -72.783    -0.004     (0)  
   Fe(SO4)2-       0.000e+00   0.000e+00   -98.573   -98.574    -0.000     (0)  
H(0)          4.710e-04
   H2              2.355e-04   2.355e-04    -3.628    -3.628     0.000     (0)  
O(0)          0.000e+00
   O2              0.000e+00   0.000e+00   -85.124   -85.124     0.000     (0)  
S(-2)         6.000e-12
   HS-             3.154e-12   3.153e-12   -11.501   -11.501    -0.000     (0)  
   H2S             2.763e-12   2.763e-12   -11.559   -11.559     0.000     (0)  
   S5-2            8.004e-15   7.992e-15   -14.097   -14.097    -0.001     (0)  
   S4-2            4.670e-15   4.663e-15   -14.331   -14.331    -0.001     (0)  
   S6-2            4.143e-15   4.137e-15   -14.383   -14.383    -0.001     (0)  
   S-2             3.805e-18   3.799e-18   -17.420   -17.420    -0.001     (0)  
   S3-2            1.646e-18   1.643e-18   -17.784   -17.784    -0.001     (0)  
   S2-2            9.339e-20   9.325e-20   -19.030   -19.030    -0.001     (0)  
   Fe(HS)2         1.763e-26   1.763e-26   -25.754   -25.754     0.000     (0)  
   Fe(HS)3-        6.056e-36   6.053e-36   -35.218   -35.218    -0.000     (0)  
S(6)          5.627e-37
   SO4-2           5.627e-37   5.619e-37   -36.250   -36.250    -0.001     (0)  
   HSO4-           0.000e+00   0.000e+00   -41.262   -41.262    -0.000     (0)  
   FeSO4           0.000e+00   0.000e+00   -45.701   -45.701     0.000     (0)  
   FeSO4+          0.000e+00   0.000e+00   -63.823   -63.823    -0.000     (0)  
   Fe(SO4)2-       0.000e+00   0.000e+00   -98.573   -98.574    -0.000     (0)  

------------------------------Saturation indices-------------------------------

  Phase               SI** log IAP   log K(298 K,   1 atm)

  Fe2(SO4)3      -175.32   -171.74    3.58  Fe2(SO4)3
  Fe3(OH)8        -38.92    -18.69   20.22  Fe3(OH)8
  Ferrihydrite    -15.39    -10.50    4.89  Fe(OH)3
  FeS(ppt)        -12.29    -16.20   -3.92  FeS
  Goethite        -11.00    -10.50    0.50  FeOOH
  Greigite        -51.57    -92.70  -41.13  Fe3S4
  Hematite        -16.98    -20.99   -4.01  Fe2O3
  Jarosite-H     -119.88   -131.98  -12.10  (H3O)Fe3(SO4)2(OH)6
  Lepidocrocite   -11.87    -10.50    1.37  FeOOH
  Mackinawite     -14.07    -16.20   -2.14  FeS
  Maghemite       -27.38    -20.99    6.39  Fe2O3
  Magnetite       -22.43    -18.69    3.74  Fe3O4
  Melanterite     -45.48    -47.95   -2.47  FeSO4:7H2O
  O2(g)           -82.16      0.96   83.12  O2
  pe_fix            6.76      6.76    0.00  e-
  pH_fix           -7.00     -7.00    0.00  H+
  Pyrite          -15.75    -34.23  -18.48  FeS2
  Pyrrhotite      -12.96    -16.20   -3.25  FeS
  Sulfur          -15.91    -18.02   -2.11  S

**For a gas, SI = log10(fugacity). Fugacity = pressure * phi / 1 atm.
  For ideal gases, phi = 1.

Reaction step 3.

Using solution 1.	PURE WATER
Using pure phase assemblage 1.	
Using reaction 1.	

Reaction 1.	

	  1.000e-12 moles of the following reaction have been added:

	                 Relative
	Reactant            moles

	Fe1S3                1.00000

	                 Relative
	Element             moles
	Fe                   1.00000
	S                    3.00000

-------------------------------Phase assemblage--------------------------------

                                                      Moles in assemblage
Phase               SI  log IAP  log K(T, P)   Initial       Final       Delta

Greigite        -50.34   -91.46    -41.13    0.000e+00           0   0.000e+00
Mackinawite     -13.71   -15.85     -2.14    0.000e+00           0   0.000e+00
Pyrite          -15.22   -33.70    -18.48    0.000e+00           0   0.000e+00
Pyrrhotite      -12.61   -15.85     -3.25    0.000e+00           0   0.000e+00

-----------------------------Solution composition------------------------------

	Elements           Molality       Moles

	Fe                3.000e-12   3.000e-12
	S                 9.000e-12   9.000e-12

----------------------------Description of solution----------------------------

                                       pH  =   6.999      Charge balance
                                       pe  =  -6.760      Adjusted to redox equilibrium
                        Activity of water  =   1.000
                 Ionic strength (mol/kgw)  =   1.003e-07
                       Mass of water (kg)  =   1.000e+00
                 Total alkalinity (eq/kg)  =   6.000e-12
                         Temperature (°C)  =  25.00
                  Electrical balance (eq)  =  -2.711e-21
 Percent error, 100*(Cat-|An|)/(Cat+|An|)  =  -0.00
                               Iterations  =   4
                                  Total H  = 1.110129e+02
                                  Total O  = 5.550622e+01

----------------------------Distribution of species----------------------------

                                               Log       Log       Log    mole V
   Species          Molality    Activity  Molality  Activity     Gamma    cm³/mol

   OH-             1.003e-07   1.002e-07    -6.999    -6.999    -0.000     (0)  
   H+              1.003e-07   1.002e-07    -6.999    -6.999    -0.000      0.00
   H2O             5.551e+01   1.000e+00     1.744    -0.000     0.000     18.07
Fe(2)         3.000e-12
   Fe+2            2.991e-12   2.986e-12   -11.524   -11.525    -0.001     (0)  
   FeOH+           9.425e-15   9.421e-15   -14.026   -14.026    -0.000     (0)  
   Fe(OH)2         8.000e-19   8.000e-19   -18.097   -18.097     0.000     (0)  
   Fe(OH)3-        2.967e-22   2.966e-22   -21.528   -21.528    -0.000     (0)  
   Fe(HS)2         5.951e-26   5.951e-26   -25.225   -25.225     0.000     (0)  
   Fe(HS)3-        3.066e-35   3.065e-35   -34.513   -34.514    -0.000     (0)  
   FeSO4           0.000e+00   0.000e+00   -45.349   -45.349     0.000     (0)  
Fe(3)         1.159e-23
   Fe(OH)2+        1.026e-23   1.026e-23   -22.989   -22.989    -0.000     (0)  
   Fe(OH)3         1.203e-24   1.203e-24   -23.920   -23.920     0.000     (0)  
   Fe(OH)4-        1.200e-25   1.200e-25   -24.921   -24.921    -0.000     (0)  
   FeOH+2          3.110e-27   3.105e-27   -26.507   -26.508    -0.001     (0)  
   Fe+3            4.837e-32   4.821e-32   -31.315   -31.317    -0.001     (0)  
   Fe2(OH)2+4      0.000e+00   0.000e+00   -51.583   -51.586    -0.003     (0)  
   FeSO4+          0.000e+00   0.000e+00   -63.471   -63.471    -0.000     (0)  
   Fe3(OH)4+5      0.000e+00   0.000e+00   -72.251   -72.255    -0.004     (0)  
   Fe(SO4)2-       0.000e+00   0.000e+00   -98.045   -98.045    -0.000     (0)  
H(0)          4.710e-04
   H2              2.355e-04   2.355e-04    -3.628    -3.628     0.000     (0)  
O(0)          0.000e+00
   O2              0.000e+00   0.000e+00   -85.124   -85.124     0.000     (0)  
S(-2)         9.000e-12
   HS-             4.731e-12   4.729e-12   -11.325   -11.325    -0.000     (0)  
   H2S             4.144e-12   4.144e-12   -11.383   -11.383     0.000     (0)  
   S5-2            1.201e-14   1.199e-14   -13.921   -13.921    -0.001     (0)  
   S4-2            7.005e-15   6.994e-15   -14.155   -14.155    -0.001     (0)  
   S6-2            6.214e-15   6.205e-15   -14.207   -14.207    -0.001     (0)  
   S-2             5.707e-18   5.698e-18   -17.244   -17.244    -0.001     (0)  
   S3-2            2.468e-18   2.465e-18   -17.608   -17.608    -0.001     (0)  
   S2-2            1.401e-19   1.399e-19   -18.854   -18.854    -0.001     (0)  
   Fe(HS)2         5.951e-26   5.951e-26   -25.225   -25.225     0.000     (0)  
   Fe(HS)3-        3.066e-35   3.065e-35   -34.513   -34.514    -0.000     (0)  
S(6)          8.441e-37
   SO4-2           8.441e-37   8.429e-37   -36.074   -36.074    -0.001     (0)  
   HSO4-           0.000e+00   0.000e+00   -41.086   -41.086    -0.000     (0)  
   FeSO4           0.000e+00   0.000e+00   -45.349   -45.349     0.000     (0)  
   FeSO4+          0.000e+00   0.000e+00   -63.471   -63.471    -0.000     (0)  
   Fe(SO4)2-       0.000e+00   0.000e+00   -98.045   -98.045    -0.000     (0)  

------------------------------Saturation indices-------------------------------

  Phase               SI** log IAP   log K(298 K,   1 atm)

  Fe2(SO4)3      -174.44   -170.86    3.58  Fe2(SO4)3
  Fe3(OH)8        -38.39    -18.17   20.22  Fe3(OH)8
  Ferrihydrite    -15.21    -10.32    4.89  Fe(OH)3
  FeS(ppt)        -11.94    -15.85   -3.92  FeS
  Goethite        -10.82    -10.32    0.50  FeOOH
  Greigite        -50.34    -91.46  -41.13  Fe3S4
  Hematite        -16.63    -20.64   -4.01  Fe2O3
  Jarosite-H     -119.00   -131.10  -12.10  (H3O)Fe3(SO4)2(OH)6
  Lepidocrocite   -11.69    -10.32    1.37  FeOOH
  Mackinawite     -13.71    -15.85   -2.14  FeS
  Maghemite       -27.03    -20.64    6.39  Fe2O3
  Magnetite       -21.90    -18.17    3.74  Fe3O4
  Melanterite     -45.13    -47.60   -2.47  FeSO4:7H2O
  O2(g)           -82.16      0.96   83.12  O2
  pe_fix            6.76      6.76    0.00  e-
  pH_fix           -7.00     -7.00    0.00  H+
  Pyrite          -15.22    -33.70  -18.48  FeS2
  Pyrrhotite      -12.61    -15.85   -3.25  FeS
  Sulfur          -15.74    -17.85   -2.11  S

**For a gas, SI = log10(fugacity). Fugacity = pressure * phi / 1 atm.
  For ideal gases, phi = 1.

Reaction step 4.

Using solution 1.	PURE WATER
Using pure phase assemblage 1.	
Using reaction 1.	

Reaction 1.	

	  1.000e-12 moles of the following reaction have been added:

	                 Relative
	Reactant            moles

	Fe1S3                1.00000

	                 Relative
	Element             moles
	Fe                   1.00000
	S                    3.00000

-------------------------------Phase assemblage--------------------------------

                                                      Moles in assemblage
Phase               SI  log IAP  log K(T, P)   Initial       Final       Delta

Greigite        -49.46   -90.59    -41.13    0.000e+00           0   0.000e+00
Mackinawite     -13.46   -15.60     -2.14    0.000e+00           0   0.000e+00
Pyrite          -14.84   -33.32    -18.48    0.000e+00           0   0.000e+00
Pyrrhotite      -12.36   -15.60     -3.25    0.000e+00           0   0.000e+00

-----------------------------Solution composition------------------------------

	Elements           Molality       Moles

	Fe                4.000e-12   4.000e-12
	S                 1.200e-11   1.200e-11

----------------------------Description of solution----------------------------

                                       pH  =   6.999      Charge balance
                                       pe  =  -6.760      Adjusted to redox equilibrium
                        Activity of water  =   1.000
                 Ionic strength (mol/kgw)  =   1.003e-07
                       Mass of water (kg)  =   1.000e+00
                 Total alkalinity (eq/kg)  =   8.000e-12
                         Temperature (°C)  =  25.00
                  Electrical balance (eq)  =  -2.512e-21
 Percent error, 100*(Cat-|An|)/(Cat+|An|)  =  -0.00
                               Iterations  =   4
                                  Total H  = 1.110129e+02
                                  Total O  = 5.550622e+01

----------------------------Distribution of species----------------------------

                                               Log       Log       Log    mole V
   Species          Molality    Activity  Molality  Activity     Gamma    cm³/mol

   OH-             1.003e-07   1.002e-07    -6.999    -6.999    -0.000     (0)  
   H+              1.003e-07   1.002e-07    -6.999    -6.999    -0.000      0.00
   H2O             5.551e+01   1.000e+00     1.744    -0.000     0.000     18.07
Fe(2)         4.000e-12
   Fe+2            3.987e-12   3.982e-12   -11.399   -11.400    -0.001     (0)  
   FeOH+           1.257e-14   1.256e-14   -13.901   -13.901    -0.000     (0)  
   Fe(OH)2         1.067e-18   1.067e-18   -17.972   -17.972     0.000     (0)  
   Fe(OH)3-        3.956e-22   3.954e-22   -21.403   -21.403    -0.000     (0)  
   Fe(HS)2         1.411e-25   1.411e-25   -24.851   -24.851     0.000     (0)  
   Fe(HS)3-        9.689e-35   9.686e-35   -34.014   -34.014    -0.000     (0)  
   FeSO4           0.000e+00   0.000e+00   -45.099   -45.099     0.000     (0)  
Fe(3)         1.545e-23
   Fe(OH)2+        1.368e-23   1.368e-23   -22.864   -22.864    -0.000     (0)  
   Fe(OH)3         1.603e-24   1.603e-24   -23.795   -23.795     0.000     (0)  
   Fe(OH)4-        1.600e-25   1.600e-25   -24.796   -24.796    -0.000     (0)  
   FeOH+2          4.147e-27   4.140e-27   -26.382   -26.383    -0.001     (0)  
   Fe+3            6.449e-32   6.428e-32   -31.191   -31.192    -0.001     (0)  
   Fe2(OH)2+4      0.000e+00   0.000e+00   -51.333   -51.336    -0.003     (0)  
   FeSO4+          0.000e+00   0.000e+00   -63.221   -63.221    -0.000     (0)  
   Fe3(OH)4+5      0.000e+00   0.000e+00   -71.876   -71.880    -0.004     (0)  
   Fe(SO4)2-       0.000e+00   0.000e+00   -97.670   -97.671    -0.000     (0)  
H(0)          4.710e-04
   H2              2.355e-04   2.355e-04    -3.628    -3.628     0.000     (0)  
O(0)          0.000e+00
   O2              0.000e+00   0.000e+00   -85.124   -85.124     0.000     (0)  
S(-2)         1.200e-11
   HS-             6.307e-12   6.305e-12   -11.200   -11.200    -0.000     (0)  
   H2S             5.525e-12   5.525e-12   -11.258   -11.258     0.000     (0)  
   S5-2            1.601e-14   1.598e-14   -13.796   -13.796    -0.001     (0)  
   S4-2            9.340e-15   9.326e-15   -14.030   -14.030    -0.001     (0)  
   S6-2            8.286e-15   8.274e-15   -14.082   -14.082    -0.001     (0)  
   S-2             7.609e-18   7.598e-18   -17.119   -17.119    -0.001     (0)  
   S3-2            3.291e-18   3.286e-18   -17.483   -17.483    -0.001     (0)  
   S2-2            1.868e-19   1.865e-19   -18.729   -18.729    -0.001     (0)  
   Fe(HS)2         1.411e-25   1.411e-25   -24.851   -24.851     0.000     (0)  
   Fe(HS)3-        9.689e-35   9.686e-35   -34.014   -34.014    -0.000     (0)  
S(6)          1.125e-36
   SO4-2           1.125e-36   1.124e-36   -35.949   -35.949    -0.001     (0)  
   HSO4-           0.000e+00   0.000e+00   -40.961   -40.961    -0.000     (0)  
   FeSO4           0.000e+00   0.000e+00   -45.099   -45.099     0.000     (0)  
   FeSO4+          0.000e+00   0.000e+00   -63.221   -63.221    -0.000     (0)  
   Fe(SO4)2-       0.000e+00   0.000e+00   -97.670   -97.671    -0.000     (0)  

------------------------------Saturation indices-------------------------------

  Phase               SI** log IAP   log K(298 K,   1 atm)

  Fe2(SO4)3      -173.81   -170.23    3.58  Fe2(SO4)3
  Fe3(OH)8        -38.01    -17.79   20.22  Fe3(OH)8
  Ferrihydrite    -15.09    -10.19    4.89  Fe(OH)3
  FeS(ppt)        -11.69    -15.60   -3.92  FeS
  Goethite        -10.69    -10.19    0.50  FeOOH
  Greigite        -49.46    -90.59  -41.13  Fe3S4
  Hematite        -16.38    -20.39   -4.01  Fe2O3
  Jarosite-H     -118.38   -130.48  -12.10  (H3O)Fe3(SO4)2(OH)6
  Lepidocrocite   -11.57    -10.19    1.37  FeOOH
  Mackinawite     -13.46    -15.60   -2.14  FeS
  Maghemite       -26.78    -20.39    6.39  Fe2O3
  Magnetite       -21.53    -17.79    3.74  Fe3O4
  Melanterite     -44.88    -47.35   -2.47  FeSO4:7H2O
  O2(g)           -82.16      0.96   83.12  O2
  pe_fix            6.76      6.76    0.00  e-
  pH_fix           -7.00     -7.00    0.00  H+
  Pyrite          -14.84    -33.32  -18.48  FeS2
  Pyrrhotite      -12.36    -15.60   -3.25  FeS
  Sulfur          -15.61    -17.72   -2.11  S

**For a gas, SI = log10(fugacity). Fugacity = pressure * phi / 1 atm.
  For ideal gases, phi = 1.

Reaction step 5.

Using solution 1.	PURE WATER
Using pure phase assemblage 1.	
Using reaction 1.	

Reaction 1.	

	  1.000e-12 moles of the following reaction have been added:

	                 Relative
	Reactant            moles

	Fe1S3                1.00000

	                 Relative
	Element             moles
	Fe                   1.00000
	S                    3.00000

-------------------------------Phase assemblage--------------------------------

                                                      Moles in assemblage
Phase               SI  log IAP  log K(T, P)   Initial       Final       Delta

Greigite        -48.78   -89.91    -41.13    0.000e+00           0   0.000e+00
Mackinawite     -13.27   -15.41     -2.14    0.000e+00           0   0.000e+00
Pyrite          -14.55   -33.03    -18.48    0.000e+00           0   0.000e+00
Pyrrhotite      -12.16   -15.41     -3.25    0.000e+00           0   0.000e+00

-----------------------------Solution composition------------------------------

	Elements           Molality       Moles

	Fe                5.000e-12   5.000e-12
	S                 1.500e-11   1.500e-11

----------------------------Description of solution----------------------------

                                       pH  =   6.999      Charge balance
                                       pe  =  -6.760      Adjusted to redox equilibrium
                        Activity of water  =   1.000
                 Ionic strength (mol/kgw)  =   1.003e-07
                       Mass of water (kg)  =   1.000e+00
                 Total alkalinity (eq/kg)  =   1.000e-11
                         Temperature (°C)  =  25.00
                  Electrical balance (eq)  =   1.261e-19
 Percent error, 100*(Cat-|An|)/(Cat+|An|)  =   0.00
                               Iterations  =   3
                                  Total H  = 1.110129e+02
                                  Total O  = 5.550622e+01

----------------------------Distribution of species----------------------------

                                               Log       Log       Log    mole V
   Species          Molality    Activity  Molality  Activity     Gamma    cm³/mol

   OH-             1.003e-07   1.002e-07    -6.999    -6.999    -0.000     (0)  
   H+              1.003e-07   1.002e-07    -6.999    -6.999    -0.000      0.00
   H2O             5.551e+01   1.000e+00     1.744    -0.000     0.000     18.07
Fe(2)         5.000e-12
   Fe+2            4.984e-12   4.977e-12   -11.302   -11.303    -0.001     (0)  
   FeOH+           1.571e-14   1.570e-14   -13.804   -13.804    -0.000     (0)  
   Fe(OH)2         1.333e-18   1.333e-18   -17.875   -17.875     0.000     (0)  
   Fe(OH)3-        4.945e-22   4.943e-22   -21.306   -21.306    -0.000     (0)  
   Fe(HS)2         2.755e-25   2.755e-25   -24.560   -24.560     0.000     (0)  
   Fe(HS)3-        2.366e-34   2.365e-34   -33.626   -33.626    -0.000     (0)  
   FeSO4           0.000e+00   0.000e+00   -44.905   -44.905     0.000     (0)  
Fe(3)         1.931e-23
   Fe(OH)2+        1.710e-23   1.710e-23   -22.767   -22.767    -0.000     (0)  
   Fe(OH)3         2.004e-24   2.004e-24   -23.698   -23.698     0.000     (0)  
   Fe(OH)4-        2.000e-25   2.000e-25   -24.699   -24.699    -0.000     (0)  
   FeOH+2          5.183e-27   5.176e-27   -26.285   -26.286    -0.001     (0)  
   Fe+3            8.061e-32   8.034e-32   -31.094   -31.095    -0.001     (0)  
   Fe2(OH)2+4      0.000e+00   0.000e+00   -51.140   -51.142    -0.003     (0)  
   FeSO4+          0.000e+00   0.000e+00   -63.027   -63.027    -0.000     (0)  
   Fe3(OH)4+5      0.000e+00   0.000e+00   -71.585   -71.589    -0.004     (0)  
   Fe(SO4)2-       0.000e+00   0.000e+00   -97.380   -97.380    -0.000     (0)  
H(0)          4.710e-04
   H2              2.355e-04   2.355e-04    -3.628    -3.628     0.000     (0)  
O(0)          0.000e+00
   O2              0.000e+00   0.000e+00   -85.124   -85.124     0.000     (0)  
S(-2)         1.500e-11
   HS-             7.884e-12   7.881e-12   -11.103   -11.103    -0.000     (0)  
   H2S             6.907e-12   6.907e-12   -11.161   -11.161     0.000     (0)  
   S5-2            2.001e-14   1.998e-14   -13.699   -13.699    -0.001     (0)  
   S4-2            1.167e-14   1.166e-14   -13.933   -13.933    -0.001     (0)  
   S6-2            1.036e-14   1.034e-14   -13.985   -13.985    -0.001     (0)  
   S-2             9.512e-18   9.497e-18   -17.022   -17.022    -0.001     (0)  
   S3-2            4.114e-18   4.108e-18   -17.386   -17.386    -0.001     (0)  
   S2-2            2.335e-19   2.331e-19   -18.632   -18.632    -0.001     (0)  
   Fe(HS)2         2.755e-25   2.755e-25   -24.560   -24.560     0.000     (0)  
   Fe(HS)3-        2.366e-34   2.365e-34   -33.626   -33.626    -0.000     (0)  
S(6)          1.407e-36
   SO4-2           1.407e-36   1.405e-36   -35.852   -35.852    -0.001     (0)  
   HSO4-           0.000e+00   0.000e+00   -40.864   -40.864    -0.000     (0)  
   FeSO4           0.000e+00   0.000e+00   -44.905   -44.905     0.000     (0)  
   FeSO4+          0.000e+00   0.000e+00   -63.027   -63.027    -0.000     (0)  
   Fe(SO4)2-       0.000e+00   0.000e+00   -97.380   -97.380    -0.000     (0)  

------------------------------Saturation indices-------------------------------

  Phase               SI** log IAP   log K(298 K,   1 atm)

  Fe2(SO4)3      -173.33   -169.75    3.58  Fe2(SO4)3
  Fe3(OH)8        -37.72    -17.50   20.22  Fe3(OH)8
  Ferrihydrite    -14.99    -10.10    4.89  Fe(OH)3
  FeS(ppt)        -11.49    -15.41   -3.92  FeS
  Goethite        -10.60    -10.10    0.50  FeOOH
  Greigite        -48.78    -89.91  -41.13  Fe3S4
  Hematite        -16.19    -20.20   -4.01  Fe2O3
  Jarosite-H     -117.89   -129.99  -12.10  (H3O)Fe3(SO4)2(OH)6
  Lepidocrocite   -11.47    -10.10    1.37  FeOOH
  Mackinawite     -13.27    -15.41   -2.14  FeS
  Maghemite       -26.58    -20.20    6.39  Fe2O3
  Magnetite       -21.24    -17.50    3.74  Fe3O4
  Melanterite     -44.69    -47.16   -2.47  FeSO4:7H2O
  O2(g)           -82.16      0.96   83.12  O2
  pe_fix            6.76      6.76    0.00  e-
  pH_fix           -7.00     -7.00    0.00  H+
  Pyrite          -14.55    -33.03  -18.48  FeS2
  Pyrrhotite      -12.16    -15.41   -3.25  FeS
  Sulfur          -15.51    -17.62   -2.11  S

**For a gas, SI = log10(fugacity). Fugacity = pressure * phi / 1 atm.
  For ideal gases, phi = 1.

Reaction step 6.

Using solution 1.	PURE WATER
Using pure phase assemblage 1.	
Using reaction 1.	

Reaction 1.	

	  1.000e-12 moles of the following reaction have been added:

	                 Relative
	Reactant            moles

	Fe1S3                1.00000

	                 Relative
	Element             moles
	Fe                   1.00000
	S                    3.00000

-------------------------------Phase assemblage--------------------------------

                                                      Moles in assemblage
Phase               SI  log IAP  log K(T, P)   Initial       Final       Delta

Greigite        -48.23   -89.36    -41.13    0.000e+00           0   0.000e+00
Mackinawite     -13.11   -15.25     -2.14    0.000e+00           0   0.000e+00
Pyrite          -14.32   -32.79    -18.48    0.000e+00           0   0.000e+00
Pyrrhotite      -12.00   -15.25     -3.25    0.000e+00           0   0.000e+00

-----------------------------Solution composition------------------------------

	Elements           Molality       Moles

	Fe                6.000e-12   6.000e-12
	S                 1.800e-11   1.800e-11

----------------------------Description of solution----------------------------

                                       pH  =   6.999      Charge balance
                                       pe  =  -6.760      Adjusted to redox equilibrium
                        Activity of water  =   1.000
                 Ionic strength (mol/kgw)  =   1.003e-07
                       Mass of water (kg)  =   1.000e+00
                 Total alkalinity (eq/kg)  =   1.200e-11
                         Temperature (°C)  =  25.00
                  Electrical balance (eq)  =   1.554e-19
 Percent error, 100*(Cat-|An|)/(Cat+|An|)  =   0.00
                               Iterations  =   3
                                  Total H  = 1.110129e+02
                                  Total O  = 5.550622e+01

----------------------------Distribution of species----------------------------

                                               Log       Log       Log    mole V
   Species          Molality    Activity  Molality  Activity     Gamma    cm³/mol

   OH-             1.003e-07   1.002e-07    -6.999    -6.999    -0.000     (0)  
   H+              1.003e-07   1.002e-07    -6.999    -6.999    -0.000      0.00
   H2O             5.551e+01   1.000e+00     1.744    -0.000     0.000     18.07
Fe(2)         6.000e-12
   Fe+2            5.981e-12   5.972e-12   -11.223   -11.224    -0.001     (0)  
   FeOH+           1.885e-14   1.884e-14   -13.725   -13.725    -0.000     (0)  
   Fe(OH)2         1.600e-18   1.600e-18   -17.796   -17.796     0.000     (0)  
   Fe(OH)3-        5.934e-22   5.931e-22   -21.227   -21.227    -0.000     (0)  
   Fe(HS)2         4.761e-25   4.761e-25   -24.322   -24.322     0.000     (0)  
   Fe(HS)3-        4.905e-34   4.903e-34   -33.309   -33.310    -0.000     (0)  
   FeSO4           0.000e+00   0.000e+00   -44.747   -44.747     0.000     (0)  
Fe(3)         2.318e-23
   Fe(OH)2+        2.053e-23   2.052e-23   -22.688   -22.688    -0.000     (0)  
   Fe(OH)3         2.405e-24   2.405e-24   -23.619   -23.619     0.000     (0)  
   Fe(OH)4-        2.401e-25   2.400e-25   -24.620   -24.620    -0.000     (0)  
   FeOH+2          6.220e-27   6.211e-27   -26.206   -26.207    -0.001     (0)  
   Fe+3            9.674e-32   9.641e-32   -31.014   -31.016    -0.001     (0)  
   Fe2(OH)2+4      0.000e+00   0.000e+00   -50.981   -50.984    -0.003     (0)  
   FeSO4+          0.000e+00   0.000e+00   -62.869   -62.869    -0.000     (0)  
   Fe3(OH)4+5      0.000e+00   0.000e+00   -71.348   -71.352    -0.004     (0)  
   Fe(SO4)2-       0.000e+00   0.000e+00   -97.142   -97.142    -0.000     (0)  
H(0)          4.710e-04
   H2              2.355e-04   2.355e-04    -3.628    -3.628     0.000     (0)  
O(0)          0.000e+00
   O2              0.000e+00   0.000e+00   -85.124   -85.124     0.000     (0)  
S(-2)         1.800e-11
   HS-             9.461e-12   9.458e-12   -11.024   -11.024    -0.000     (0)  
   H2S             8.288e-12   8.288e-12   -11.082   -11.082     0.000     (0)  
   S5-2            2.401e-14   2.398e-14   -13.620   -13.620    -0.001     (0)  
   S4-2            1.401e-14   1.399e-14   -13.854   -13.854    -0.001     (0)  
   S6-2            1.243e-14   1.241e-14   -13.906   -13.906    -0.001     (0)  
   S-2             1.141e-17   1.140e-17   -16.943   -16.943    -0.001     (0)  
   S3-2            4.937e-18   4.929e-18   -17.307   -17.307    -0.001     (0)  
   S2-2            2.802e-19   2.798e-19   -18.553   -18.553    -0.001     (0)  
   Fe(HS)2         4.761e-25   4.761e-25   -24.322   -24.322     0.000     (0)  
   Fe(HS)3-        4.905e-34   4.903e-34   -33.309   -33.310    -0.000     (0)  
S(6)          1.688e-36
   SO4-2           1.688e-36   1.686e-36   -35.773   -35.773    -0.001     (0)  
   HSO4-           0.000e+00   0.000e+00   -40.785   -40.785    -0.000     (0)  
   FeSO4           0.000e+00   0.000e+00   -44.747   -44.747     0.000     (0)  
   FeSO4+          0.000e+00   0.000e+00   -62.869   -62.869    -0.000     (0)  
   Fe(SO4)2-       0.000e+00   0.000e+00   -97.142   -97.142    -0.000     (0)  

------------------------------Saturation indices-------------------------------

  Phase               SI** log IAP   log K(298 K,   1 atm)

  Fe2(SO4)3      -172.93   -169.35    3.58  Fe2(SO4)3
  Fe3(OH)8        -37.49    -17.26   20.22  Fe3(OH)8
  Ferrihydrite    -14.91    -10.02    4.89  Fe(OH)3
  FeS(ppt)        -11.33    -15.25   -3.92  FeS
  Goethite        -10.52    -10.02    0.50  FeOOH
  Greigite        -48.23    -89.36  -41.13  Fe3S4
  Hematite        -16.03    -20.04   -4.01  Fe2O3
  Jarosite-H     -117.50   -129.60  -12.10  (H3O)Fe3(SO4)2(OH)6
  Lepidocrocite   -11.39    -10.02    1.37  FeOOH
  Mackinawite     -13.11    -15.25   -2.14  FeS
  Maghemite       -26.42    -20.04    6.39  Fe2O3
  Magnetite       -21.00    -17.26    3.74  Fe3O4
  Melanterite     -44.53    -47.00   -2.47  FeSO4:7H2O
  O2(g)           -82.16      0.96   83.12  O2
  pe_fix            6.76      6.76    0.00  e-
  pH_fix           -7.00     -7.00    0.00  H+
  Pyrite          -14.32    -32.79  -18.48  FeS2
  Pyrrhotite      -12.00    -15.25   -3.25  FeS
  Sulfur          -15.44    -17.55   -2.11  S

**For a gas, SI = log10(fugacity). Fugacity = pressure * phi / 1 atm.
  For ideal gases, phi = 1.

Reaction step 7.

Using solution 1.	PURE WATER
Using pure phase assemblage 1.	
Using reaction 1.	

Reaction 1.	

	  1.000e-12 moles of the following reaction have been added:

	                 Relative
	Reactant            moles

	Fe1S3                1.00000

	                 Relative
	Element             moles
	Fe                   1.00000
	S                    3.00000

-------------------------------Phase assemblage--------------------------------

                                                      Moles in assemblage
Phase               SI  log IAP  log K(T, P)   Initial       Final       Delta

Greigite        -47.76   -88.89    -41.13    0.000e+00           0   0.000e+00
Mackinawite     -12.98   -15.12     -2.14    0.000e+00           0   0.000e+00
Pyrite          -14.11   -32.59    -18.48    0.000e+00           0   0.000e+00
Pyrrhotite      -11.87   -15.12     -3.25    0.000e+00           0   0.000e+00

-----------------------------Solution composition------------------------------

	Elements           Molality       Moles

	Fe                7.000e-12   7.000e-12
	S                 2.100e-11   2.100e-11

----------------------------Description of solution----------------------------

                                       pH  =   6.999      Charge balance
                                       pe  =  -6.760      Adjusted to redox equilibrium
                        Activity of water  =   1.000
                 Ionic strength (mol/kgw)  =   1.003e-07
                       Mass of water (kg)  =   1.000e+00
                 Total alkalinity (eq/kg)  =   1.400e-11
                         Temperature (°C)  =  25.00
                  Electrical balance (eq)  =   1.640e-19
 Percent error, 100*(Cat-|An|)/(Cat+|An|)  =   0.00
                               Iterations  =   3
                                  Total H  = 1.110129e+02
                                  Total O  = 5.550622e+01

----------------------------Distribution of species----------------------------

                                               Log       Log       Log    mole V
   Species          Molality    Activity  Molality  Activity     Gamma    cm³/mol

   OH-             1.003e-07   1.002e-07    -6.999    -6.999    -0.000     (0)  
   H+              1.003e-07   1.002e-07    -6.999    -6.999    -0.000      0.00
   H2O             5.551e+01   1.000e+00     1.744    -0.000     0.000     18.07
Fe(2)         7.000e-12
   Fe+2            6.978e-12   6.968e-12   -11.156   -11.157    -0.001     (0)  
   FeOH+           2.199e-14   2.198e-14   -13.658   -13.658    -0.000     (0)  
   Fe(OH)2         1.867e-18   1.867e-18   -17.729   -17.729     0.000     (0)  
   Fe(OH)3-        6.922e-22   6.920e-22   -21.160   -21.160    -0.000     (0)  
   Fe(HS)2         7.560e-25   7.560e-25   -24.121   -24.121     0.000     (0)  
   Fe(HS)3-        9.087e-34   9.084e-34   -33.042   -33.042    -0.000     (0)  
   FeSO4           0.000e+00   0.000e+00   -44.613   -44.613     0.000     (0)  
Fe(3)         2.704e-23
   Fe(OH)2+        2.395e-23   2.394e-23   -22.621   -22.621    -0.000     (0)  
   Fe(OH)3         2.806e-24   2.806e-24   -23.552   -23.552     0.000     (0)  
   Fe(OH)4-        2.801e-25   2.800e-25   -24.553   -24.553    -0.000     (0)  
   FeOH+2          7.257e-27   7.246e-27   -26.139   -26.140    -0.001     (0)  
   Fe+3            1.129e-31   1.125e-31   -30.947   -30.949    -0.001     (0)  
   Fe2(OH)2+4      0.000e+00   0.000e+00   -50.847   -50.850    -0.003     (0)  
   FeSO4+          0.000e+00   0.000e+00   -62.735   -62.735    -0.000     (0)  
   Fe3(OH)4+5      0.000e+00   0.000e+00   -71.147   -71.151    -0.004     (0)  
   Fe(SO4)2-       0.000e+00   0.000e+00   -96.941   -96.941    -0.000     (0)  
H(0)          4.710e-04
   H2              2.355e-04   2.355e-04    -3.628    -3.628     0.000     (0)  
O(0)          0.000e+00
   O2              0.000e+00   0.000e+00   -85.124   -85.124     0.000     (0)  
S(-2)         2.100e-11
   HS-             1.104e-11   1.103e-11   -10.957   -10.957    -0.000     (0)  
   H2S             9.669e-12   9.669e-12   -11.015   -11.015     0.000     (0)  
   S5-2            2.801e-14   2.797e-14   -13.553   -13.553    -0.001     (0)  
   S4-2            1.634e-14   1.632e-14   -13.787   -13.787    -0.001     (0)  
   S6-2            1.450e-14   1.448e-14   -13.839   -13.839    -0.001     (0)  
   S-2             1.332e-17   1.330e-17   -16.876   -16.876    -0.001     (0)  
   S3-2            5.759e-18   5.751e-18   -17.240   -17.240    -0.001     (0)  
   S2-2            3.269e-19   3.264e-19   -18.486   -18.486    -0.001     (0)  
   Fe(HS)2         7.560e-25   7.560e-25   -24.121   -24.121     0.000     (0)  
   Fe(HS)3-        9.087e-34   9.084e-34   -33.042   -33.042    -0.000     (0)  
S(6)          1.970e-36
   SO4-2           1.970e-36   1.967e-36   -35.706   -35.706    -0.001     (0)  
   HSO4-           0.000e+00   0.000e+00   -40.718   -40.718    -0.000     (0)  
   FeSO4           0.000e+00   0.000e+00   -44.613   -44.613     0.000     (0)  
   FeSO4+          0.000e+00   0.000e+00   -62.735   -62.735    -0.000     (0)  
   Fe(SO4)2-       0.000e+00   0.000e+00   -96.941   -96.941    -0.000     (0)  

------------------------------Saturation indices-------------------------------

  Phase               SI** log IAP   log K(298 K,   1 atm)

  Fe2(SO4)3      -172.60   -169.02    3.58  Fe2(SO4)3
  Fe3(OH)8        -37.28    -17.06   20.22  Fe3(OH)8
  Ferrihydrite    -14.84     -9.95    4.89  Fe(OH)3
  FeS(ppt)        -11.20    -15.12   -3.92  FeS
  Goethite        -10.45     -9.95    0.50  FeOOH
  Greigite        -47.76    -88.89  -41.13  Fe3S4
  Hematite        -15.90    -19.90   -4.01  Fe2O3
  Jarosite-H     -117.16   -129.26  -12.10  (H3O)Fe3(SO4)2(OH)6
  Lepidocrocite   -11.32     -9.95    1.37  FeOOH
  Mackinawite     -12.98    -15.12   -2.14  FeS
  Maghemite       -26.29    -19.90    6.39  Fe2O3
  Magnetite       -20.80    -17.06    3.74  Fe3O4
  Melanterite     -44.39    -46.86   -2.47  FeSO4:7H2O
  O2(g)           -82.16      0.96   83.12  O2
  pe_fix            6.76      6.76    0.00  e-
  pH_fix           -7.00     -7.00    0.00  H+
  Pyrite          -14.11    -32.59  -18.48  FeS2
  Pyrrhotite      -11.87    -15.12   -3.25  FeS
  Sulfur          -15.37    -17.48   -2.11  S

**For a gas, SI = log10(fugacity). Fugacity = pressure * phi / 1 atm.
  For ideal gases, phi = 1.

Reaction step 8.

Using solution 1.	PURE WATER
Using pure phase assemblage 1.	
Using reaction 1.	

Reaction 1.	

	  1.000e-12 moles of the following reaction have been added:

	                 Relative
	Reactant            moles

	Fe1S3                1.00000

	                 Relative
	Element             moles
	Fe                   1.00000
	S                    3.00000

-------------------------------Phase assemblage--------------------------------

                                                      Moles in assemblage
Phase               SI  log IAP  log K(T, P)   Initial       Final       Delta

Greigite        -47.35   -88.48    -41.13    0.000e+00           0   0.000e+00
Mackinawite     -12.86   -15.00     -2.14    0.000e+00           0   0.000e+00
Pyrite          -13.94   -32.42    -18.48    0.000e+00           0   0.000e+00
Pyrrhotite      -11.75   -15.00     -3.25    0.000e+00           0   0.000e+00

-----------------------------Solution composition------------------------------

	Elements           Molality       Moles

	Fe                8.000e-12   8.000e-12
	S                 2.400e-11   2.400e-11

----------------------------Description of solution----------------------------

                                       pH  =   6.999      Charge balance
                                       pe  =  -6.760      Adjusted to redox equilibrium
                        Activity of water  =   1.000
                 Ionic strength (mol/kgw)  =   1.003e-07
                       Mass of water (kg)  =   1.000e+00
                 Total alkalinity (eq/kg)  =   1.600e-11
                         Temperature (°C)  =  25.00
                  Electrical balance (eq)  =   1.669e-19
 Percent error, 100*(Cat-|An|)/(Cat+|An|)  =   0.00
                               Iterations  =   3
                                  Total H  = 1.110129e+02
                                  Total O  = 5.550622e+01

----------------------------Distribution of species----------------------------

                                               Log       Log       Log    mole V
   Species          Molality    Activity  Molality  Activity     Gamma    cm³/mol

   OH-             1.003e-07   1.002e-07    -6.999    -6.999    -0.000     (0)  
   H+              1.003e-07   1.002e-07    -6.999    -6.999    -0.000      0.00
   H2O             5.551e+01   1.000e+00     1.744    -0.000     0.000     18.07
Fe(2)         8.000e-12
   Fe+2            7.975e-12   7.963e-12   -11.098   -11.099    -0.001     (0)  
   FeOH+           2.513e-14   2.512e-14   -13.600   -13.600    -0.000     (0)  
   Fe(OH)2         2.133e-18   2.133e-18   -17.671   -17.671     0.000     (0)  
   Fe(OH)3-        7.911e-22   7.909e-22   -21.102   -21.102    -0.000     (0)  
   Fe(HS)2         1.129e-24   1.129e-24   -23.947   -23.947     0.000     (0)  
   Fe(HS)3-        1.550e-33   1.550e-33   -32.810   -32.810    -0.000     (0)  
   FeSO4           0.000e+00   0.000e+00   -44.497   -44.497     0.000     (0)  
Fe(3)         3.090e-23
   Fe(OH)2+        2.737e-23   2.736e-23   -22.563   -22.563    -0.000     (0)  
   Fe(OH)3         3.207e-24   3.207e-24   -23.494   -23.494     0.000     (0)  
   Fe(OH)4-        3.201e-25   3.200e-25   -24.495   -24.495    -0.000     (0)  
   FeOH+2          8.293e-27   8.281e-27   -26.081   -26.082    -0.001     (0)  
   Fe+3            1.290e-31   1.285e-31   -30.889   -30.891    -0.001     (0)  
   Fe2(OH)2+4      0.000e+00   0.000e+00   -50.731   -50.734    -0.003     (0)  
   FeSO4+          0.000e+00   0.000e+00   -62.619   -62.619    -0.000     (0)  
   Fe3(OH)4+5      0.000e+00   0.000e+00   -70.973   -70.977    -0.004     (0)  
   Fe(SO4)2-       0.000e+00   0.000e+00   -96.767   -96.767    -0.000     (0)  
H(0)          4.710e-04
   H2              2.355e-04   2.355e-04    -3.628    -3.628     0.000     (0)  
O(0)          0.000e+00
   O2              0.000e+00   0.000e+00   -85.124   -85.124     0.000     (0)  
S(-2)         2.400e-11
   HS-             1.261e-11   1.261e-11   -10.899   -10.899    -0.000     (0)  
   H2S             1.105e-11   1.105e-11   -10.957   -10.957     0.000     (0)  
   S5-2            3.202e-14   3.197e-14   -13.495   -13.495    -0.001     (0)  
   S4-2            1.868e-14   1.865e-14   -13.729   -13.729    -0.001     (0)  
   S6-2            1.657e-14   1.655e-14   -13.781   -13.781    -0.001     (0)  
   S-2             1.522e-17   1.520e-17   -16.818   -16.818    -0.001     (0)  
   S3-2            6.582e-18   6.573e-18   -17.182   -17.182    -0.001     (0)  
   S2-2            3.736e-19   3.730e-19   -18.428   -18.428    -0.001     (0)  
   Fe(HS)2         1.129e-24   1.129e-24   -23.947   -23.947     0.000     (0)  
   Fe(HS)3-        1.550e-33   1.550e-33   -32.810   -32.810    -0.000     (0)  
S(6)          2.251e-36
   SO4-2           2.251e-36   2.248e-36   -35.648   -35.648    -0.001     (0)  
   HSO4-           0.000e+00   0.000e+00   -40.660   -40.660    -0.000     (0)  
   FeSO4           0.000e+00   0.000e+00   -44.497   -44.497     0.000     (0)  
   FeSO4+          0.000e+00   0.000e+00   -62.619   -62.619    -0.000     (0)  
   Fe(SO4)2-       0.000e+00   0.000e+00   -96.767   -96.767    -0.000     (0)  

------------------------------Saturation indices-------------------------------

  Phase               SI** log IAP   log K(298 K,   1 atm)

  Fe2(SO4)3      -172.31   -168.73    3.58  Fe2(SO4)3
  Fe3(OH)8        -37.11    -16.89   20.22  Fe3(OH)8
  Ferrihydrite    -14.78     -9.89    4.89  Fe(OH)3
  FeS(ppt)        -11.08    -15.00   -3.92  FeS
  Goethite        -10.39     -9.89    0.50  FeOOH
  Greigite        -47.35    -88.48  -41.13  Fe3S4
  Hematite        -15.78    -19.79   -4.01  Fe2O3
  Jarosite-H     -116.87   -128.97  -12.10  (H3O)Fe3(SO4)2(OH)6
  Lepidocrocite   -11.26     -9.89    1.37  FeOOH
  Mackinawite     -12.86    -15.00   -2.14  FeS
  Maghemite       -26.17    -19.79    6.39  Fe2O3
  Magnetite       -20.63    -16.89    3.74  Fe3O4
  Melanterite     -44.28    -46.75   -2.47  FeSO4:7H2O
  O2(g)           -82.16      0.96   83.12  O2
  pe_fix            6.76      6.76    0.00  e-
  pH_fix           -7.00     -7.00    0.00  H+
  Pyrite          -13.94    -32.42  -18.48  FeS2
  Pyrrhotite      -11.75    -15.00   -3.25  FeS
  Sulfur          -15.31    -17.42   -2.11  S

**For a gas, SI = log10(fugacity). Fugacity = pressure * phi / 1 atm.
  For ideal gases, phi = 1.

Reaction step 9.

Using solution 1.	PURE WATER
Using pure phase assemblage 1.	
Using reaction 1.	

Reaction 1.	

	  1.000e-12 moles of the following reaction have been added:

	                 Relative
	Reactant            moles

	Fe1S3                1.00000

	                 Relative
	Element             moles
	Fe                   1.00000
	S                    3.00000

-------------------------------Phase assemblage--------------------------------

                                                      Moles in assemblage
Phase               SI  log IAP  log K(T, P)   Initial       Final       Delta

Greigite        -47.00   -88.12    -41.13    0.000e+00           0   0.000e+00
Mackinawite     -12.76   -14.90     -2.14    0.000e+00           0   0.000e+00
Pyrite          -13.79   -32.27    -18.48    0.000e+00           0   0.000e+00
Pyrrhotite      -11.65   -14.90     -3.25    0.000e+00           0   0.000e+00

-----------------------------Solution composition------------------------------

	Elements           Molality       Moles

	Fe                9.000e-12   9.000e-12
	S                 2.700e-11   2.700e-11

----------------------------Description of solution----------------------------

                                       pH  =   6.999      Charge balance
                                       pe  =  -6.760      Adjusted to redox equilibrium
                        Activity of water  =   1.000
                 Ionic strength (mol/kgw)  =   1.003e-07
                       Mass of water (kg)  =   1.000e+00
                 Total alkalinity (eq/kg)  =   1.800e-11
                         Temperature (°C)  =  25.00
                  Electrical balance (eq)  =   1.681e-19
 Percent error, 100*(Cat-|An|)/(Cat+|An|)  =   0.00
                               Iterations  =   3
                                  Total H  = 1.110129e+02
                                  Total O  = 5.550622e+01

----------------------------Distribution of species----------------------------

                                               Log       Log       Log    mole V
   Species          Molality    Activity  Molality  Activity     Gamma    cm³/mol

   OH-             1.003e-07   1.002e-07    -6.999    -6.999    -0.000     (0)  
   H+              1.003e-07   1.002e-07    -6.999    -6.999    -0.000      0.00
   H2O             5.551e+01   1.000e+00     1.744    -0.000     0.000     18.07
Fe(2)         9.000e-12
   Fe+2            8.972e-12   8.958e-12   -11.047   -11.048    -0.001     (0)  
   FeOH+           2.827e-14   2.826e-14   -13.549   -13.549    -0.000     (0)  
   Fe(OH)2         2.400e-18   2.400e-18   -17.620   -17.620     0.000     (0)  
   Fe(OH)3-        8.900e-22   8.897e-22   -21.051   -21.051    -0.000     (0)  
   Fe(HS)2         1.607e-24   1.607e-24   -23.794   -23.794     0.000     (0)  
   Fe(HS)3-        2.483e-33   2.482e-33   -32.605   -32.605    -0.000     (0)  
   FeSO4           0.000e+00   0.000e+00   -44.395   -44.395     0.000     (0)  
Fe(3)         3.477e-23
   Fe(OH)2+        3.079e-23   3.078e-23   -22.512   -22.512    -0.000     (0)  
   Fe(OH)3         3.608e-24   3.608e-24   -23.443   -23.443     0.000     (0)  
   Fe(OH)4-        3.601e-25   3.600e-25   -24.444   -24.444    -0.000     (0)  
   FeOH+2          9.330e-27   9.316e-27   -26.030   -26.031    -0.001     (0)  
   Fe+3            1.451e-31   1.446e-31   -30.838   -30.840    -0.001     (0)  
   Fe2(OH)2+4      0.000e+00   0.000e+00   -50.629   -50.632    -0.003     (0)  
   FeSO4+          0.000e+00   0.000e+00   -62.517   -62.517    -0.000     (0)  
   Fe3(OH)4+5      0.000e+00   0.000e+00   -70.819   -70.823    -0.004     (0)  
   Fe(SO4)2-       0.000e+00   0.000e+00   -96.614   -96.614    -0.000     (0)  
H(0)          4.710e-04
   H2              2.355e-04   2.355e-04    -3.628    -3.628     0.000     (0)  
O(0)          0.000e+00
   O2              0.000e+00   0.000e+00   -85.124   -85.124     0.000     (0)  
S(-2)         2.700e-11
   HS-             1.419e-11   1.419e-11   -10.848   -10.848    -0.000     (0)  
   H2S             1.243e-11   1.243e-11   -10.905   -10.905     0.000     (0)  
   S5-2            3.602e-14   3.597e-14   -13.443   -13.444    -0.001     (0)  
   S4-2            2.102e-14   2.098e-14   -13.677   -13.678    -0.001     (0)  
   S6-2            1.864e-14   1.862e-14   -13.729   -13.730    -0.001     (0)  
   S-2             1.712e-17   1.710e-17   -16.766   -16.767    -0.001     (0)  
   S3-2            7.405e-18   7.394e-18   -17.130   -17.131    -0.001     (0)  
   S2-2            4.203e-19   4.196e-19   -18.376   -18.377    -0.001     (0)  
   Fe(HS)2         1.607e-24   1.607e-24   -23.794   -23.794     0.000     (0)  
   Fe(HS)3-        2.483e-33   2.482e-33   -32.605   -32.605    -0.000     (0)  
S(6)          2.532e-36
   SO4-2           2.532e-36   2.529e-36   -35.596   -35.597    -0.001     (0)  
   HSO4-           0.000e+00   0.000e+00   -40.609   -40.609    -0.000     (0)  
   FeSO4           0.000e+00   0.000e+00   -44.395   -44.395     0.000     (0)  
   FeSO4+          0.000e+00   0.000e+00   -62.517   -62.517    -0.000     (0)  
   Fe(SO4)2-       0.000e+00   0.000e+00   -96.614   -96.614    -0.000     (0)  

------------------------------Saturation indices-------------------------------

  Phase               SI** log IAP   log K(298 K,   1 atm)

  Fe2(SO4)3      -172.05   -168.47    3.58  Fe2(SO4)3
  Fe3(OH)8        -36.96    -16.74   20.22  Fe3(OH)8
  Ferrihydrite    -14.73     -9.84    4.89  Fe(OH)3
  FeS(ppt)        -10.98    -14.90   -3.92  FeS
  Goethite        -10.34     -9.84    0.50  FeOOH
  Greigite        -47.00    -88.12  -41.13  Fe3S4
  Hematite        -15.68    -19.69   -4.01  Fe2O3
  Jarosite-H     -116.62   -128.72  -12.10  (H3O)Fe3(SO4)2(OH)6
  Lepidocrocite   -11.21     -9.84    1.37  FeOOH
  Mackinawite     -12.76    -14.90   -2.14  FeS
  Maghemite       -26.07    -19.69    6.39  Fe2O3
  Magnetite       -20.47    -16.74    3.74  Fe3O4
  Melanterite     -44.17    -46.64   -2.47  FeSO4:7H2O
  O2(g)           -82.16      0.96   83.12  O2
  pe_fix            6.76      6.76    0.00  e-
  pH_fix           -7.00     -7.00    0.00  H+
  Pyrite          -13.79    -32.27  -18.48  FeS2
  Pyrrhotite      -11.65    -14.90   -3.25  FeS
  Sulfur          -15.26    -17.37   -2.11  S

**For a gas, SI = log10(fugacity). Fugacity = pressure * phi / 1 atm.
  For ideal gases, phi = 1.

Reaction step 10.

Using solution 1.	PURE WATER
Using pure phase assemblage 1.	
Using reaction 1.	

Reaction 1.	

	  1.000e-12 moles of the following reaction have been added:

	                 Relative
	Reactant            moles

	Fe1S3                1.00000

	                 Relative
	Element             moles
	Fe                   1.00000
	S                    3.00000

-------------------------------Phase assemblage--------------------------------

                                                      Moles in assemblage
Phase               SI  log IAP  log K(T, P)   Initial       Final       Delta

Greigite        -46.68   -87.80    -41.13    0.000e+00           0   0.000e+00
Mackinawite     -12.67   -14.81     -2.14    0.000e+00           0   0.000e+00
Pyrite          -13.65   -32.13    -18.48    0.000e+00           0   0.000e+00
Pyrrhotite      -11.56   -14.81     -3.25    0.000e+00           0   0.000e+00

-----------------------------Solution composition------------------------------

	Elements           Molality       Moles

	Fe                1.000e-11   1.000e-11
	S                 3.000e-11   3.000e-11

----------------------------Description of solution----------------------------

                                       pH  =   6.999      Charge balance
                                       pe  =  -6.760      Adjusted to redox equilibrium
                        Activity of water  =   1.000
                 Ionic strength (mol/kgw)  =   1.003e-07
                       Mass of water (kg)  =   1.000e+00
                 Total alkalinity (eq/kg)  =   2.000e-11
                         Temperature (°C)  =  25.00
                  Electrical balance (eq)  =   1.685e-19
 Percent error, 100*(Cat-|An|)/(Cat+|An|)  =   0.00
                               Iterations  =   3
                                  Total H  = 1.110129e+02
                                  Total O  = 5.550622e+01

----------------------------Distribution of species----------------------------

                                               Log       Log       Log    mole V
   Species          Molality    Activity  Molality  Activity     Gamma    cm³/mol

   OH-             1.003e-07   1.002e-07    -6.999    -6.999    -0.000     (0)  
   H+              1.003e-07   1.002e-07    -6.999    -6.999    -0.000      0.00
   H2O             5.551e+01   1.000e+00     1.744    -0.000     0.000     18.07
Fe(2)         1.000e-11
   Fe+2            9.969e-12   9.954e-12   -11.001   -11.002    -0.001     (0)  
   FeOH+           3.142e-14   3.140e-14   -13.503   -13.503    -0.000     (0)  
   Fe(OH)2         2.667e-18   2.667e-18   -17.574   -17.574     0.000     (0)  
   Fe(OH)3-        9.889e-22   9.886e-22   -21.005   -21.005    -0.000     (0)  
   Fe(HS)2         2.204e-24   2.204e-24   -23.657   -23.657     0.000     (0)  
   Fe(HS)3-        3.785e-33   3.783e-33   -32.422   -32.422    -0.000     (0)  
   FeSO4           0.000e+00   0.000e+00   -44.303   -44.303     0.000     (0)  
Fe(3)         3.863e-23
   Fe(OH)2+        3.421e-23   3.420e-23   -22.466   -22.466    -0.000     (0)  
   Fe(OH)3         4.009e-24   4.009e-24   -23.397   -23.397     0.000     (0)  
   Fe(OH)4-        4.001e-25   4.000e-25   -24.398   -24.398    -0.000     (0)  
   FeOH+2          1.037e-26   1.035e-26   -25.984   -25.985    -0.001     (0)  
   Fe+3            1.612e-31   1.607e-31   -30.793   -30.794    -0.001     (0)  
   Fe2(OH)2+4      0.000e+00   0.000e+00   -50.537   -50.540    -0.003     (0)  
   FeSO4+          0.000e+00   0.000e+00   -62.425   -62.425    -0.000     (0)  
   Fe3(OH)4+5      0.000e+00   0.000e+00   -70.682   -70.686    -0.004     (0)  
   Fe(SO4)2-       0.000e+00   0.000e+00   -96.477   -96.477    -0.000     (0)  
H(0)          4.710e-04
   H2              2.355e-04   2.355e-04    -3.628    -3.628     0.000     (0)  
O(0)          0.000e+00
   O2              0.000e+00   0.000e+00   -85.124   -85.124     0.000     (0)  
S(-2)         3.000e-11
   HS-             1.577e-11   1.576e-11   -10.802   -10.802    -0.000     (0)  
   H2S             1.381e-11   1.381e-11   -10.860   -10.860     0.000     (0)  
   S5-2            4.002e-14   3.996e-14   -13.398   -13.398    -0.001     (0)  
   S4-2            2.335e-14   2.332e-14   -13.632   -13.632    -0.001     (0)  
   S6-2            2.072e-14   2.068e-14   -13.684   -13.684    -0.001     (0)  
   S-2             1.902e-17   1.900e-17   -16.721   -16.721    -0.001     (0)  
   S3-2            8.228e-18   8.216e-18   -17.085   -17.085    -0.001     (0)  
   S2-2            4.670e-19   4.663e-19   -18.331   -18.331    -0.001     (0)  
   Fe(HS)2         2.204e-24   2.204e-24   -23.657   -23.657     0.000     (0)  
   Fe(HS)3-        3.785e-33   3.783e-33   -32.422   -32.422    -0.000     (0)  
S(6)          2.814e-36
   SO4-2           2.814e-36   2.810e-36   -35.551   -35.551    -0.001     (0)  
   HSO4-           0.000e+00   0.000e+00   -40.563   -40.563    -0.000     (0)  
   FeSO4           0.000e+00   0.000e+00   -44.303   -44.303     0.000     (0)  
   FeSO4+          0.000e+00   0.000e+00   -62.425   -62.425    -0.000     (0)  
   Fe(SO4)2-       0.000e+00   0.000e+00   -96.477   -96.477    -0.000     (0)  

------------------------------Saturation indices-------------------------------

  Phase               SI** log IAP   log K(298 K,   1 atm)

  Fe2(SO4)3      -171.82   -168.24    3.58  Fe2(SO4)3
  Fe3(OH)8        -36.82    -16.60   20.22  Fe3(OH)8
  Ferrihydrite    -14.69     -9.80    4.89  Fe(OH)3
  FeS(ppt)        -10.89    -14.81   -3.92  FeS
  Goethite        -10.30     -9.80    0.50  FeOOH
  Greigite        -46.68    -87.80  -41.13  Fe3S4
  Hematite        -15.59    -19.59   -4.01  Fe2O3
  Jarosite-H     -116.39   -128.49  -12.10  (H3O)Fe3(SO4)2(OH)6
  Lepidocrocite   -11.17     -9.80    1.37  FeOOH
  Mackinawite     -12.67    -14.81   -2.14  FeS
  Maghemite       -25.98    -19.59    6.39  Fe2O3
  Magnetite       -20.33    -16.60    3.74  Fe3O4
  Melanterite     -44.08    -46.55   -2.47  FeSO4:7H2O
  O2(g)           -82.16      0.96   83.12  O2
  pe_fix            6.76      6.76    0.00  e-
  pH_fix           -7.00     -7.00    0.00  H+
  Pyrite          -13.65    -32.13  -18.48  FeS2
  Pyrrhotite      -11.56    -14.81   -3.25  FeS
  Sulfur          -15.21    -17.32   -2.11  S

**For a gas, SI = log10(fugacity). Fugacity = pressure * phi / 1 atm.
  For ideal gases, phi = 1.

Reaction step 11.

Using solution 1.	PURE WATER
Using pure phase assemblage 1.	
Using reaction 1.	

Reaction 1.	

	  1.000e-11 moles of the following reaction have been added:

	                 Relative
	Reactant            moles

	Fe1S3                1.00000

	                 Relative
	Element             moles
	Fe                   1.00000
	S                    3.00000

-------------------------------Phase assemblage--------------------------------

                                                      Moles in assemblage
Phase               SI  log IAP  log K(T, P)   Initial       Final       Delta

Greigite        -44.57   -85.70    -41.13    0.000e+00           0   0.000e+00
Mackinawite     -12.07   -14.20     -2.14    0.000e+00           0   0.000e+00
Pyrite          -12.75   -31.23    -18.48    0.000e+00           0   0.000e+00
Pyrrhotite      -10.96   -14.20     -3.25    0.000e+00           0   0.000e+00

-----------------------------Solution composition------------------------------

	Elements           Molality       Moles

	Fe                2.000e-11   2.000e-11
	S                 6.000e-11   6.000e-11

----------------------------Description of solution----------------------------

                                       pH  =   6.999      Charge balance
                                       pe  =  -6.760      Adjusted to redox equilibrium
                        Activity of water  =   1.000
                 Ionic strength (mol/kgw)  =   1.003e-07
                       Mass of water (kg)  =   1.000e+00
                 Total alkalinity (eq/kg)  =   4.000e-11
                         Temperature (°C)  =  25.00
                  Electrical balance (eq)  =   1.684e-19
 Percent error, 100*(Cat-|An|)/(Cat+|An|)  =   0.00
                               Iterations  =   5
                                  Total H  = 1.110129e+02
                                  Total O  = 5.550622e+01

----------------------------Distribution of species----------------------------

                                               Log       Log       Log    mole V
   Species          Molality    Activity  Molality  Activity     Gamma    cm³/mol

   OH-             1.003e-07   1.002e-07    -6.999    -6.999    -0.000     (0)  
   H+              1.003e-07   1.002e-07    -6.999    -6.999    -0.000      0.00
   H2O             5.551e+01   1.000e+00     1.744    -0.000     0.000     18.07
Fe(2)         2.000e-11
   Fe+2            1.994e-11   1.991e-11   -10.700   -10.701    -0.001     (0)  
   FeOH+           6.283e-14   6.281e-14   -13.202   -13.202    -0.000     (0)  
   Fe(OH)2         5.334e-18   5.334e-18   -17.273   -17.273     0.000     (0)  
   Fe(OH)3-        1.978e-21   1.977e-21   -20.704   -20.704    -0.000     (0)  
   Fe(HS)2         1.763e-23   1.763e-23   -22.754   -22.754     0.000     (0)  
   Fe(HS)3-        6.056e-32   6.054e-32   -31.218   -31.218    -0.000     (0)  
   FeSO4           0.000e+00   0.000e+00   -43.701   -43.701     0.000     (0)  
Fe(3)         7.726e-23
   Fe(OH)2+        6.842e-23   6.840e-23   -22.165   -22.165    -0.000     (0)  
   Fe(OH)3         8.018e-24   8.018e-24   -23.096   -23.096     0.000     (0)  
   Fe(OH)4-        8.003e-25   8.000e-25   -24.097   -24.097    -0.000     (0)  
   FeOH+2          2.073e-26   2.070e-26   -25.683   -25.684    -0.001     (0)  
   Fe+3            3.224e-31   3.214e-31   -30.492   -30.493    -0.001     (0)  
   Fe2(OH)2+4      0.000e+00   0.000e+00   -49.935   -49.938    -0.003     (0)  
   FeSO4+          0.000e+00   0.000e+00   -61.823   -61.823    -0.000     (0)  
   Fe3(OH)4+5      0.000e+00   0.000e+00   -69.779   -69.783    -0.004     (0)  
   Fe(SO4)2-       0.000e+00   0.000e+00   -95.573   -95.574    -0.000     (0)  
H(0)          4.710e-04
   H2              2.355e-04   2.355e-04    -3.628    -3.628     0.000     (0)  
O(0)          0.000e+00
   O2              0.000e+00   0.000e+00   -85.124   -85.124     0.000     (0)  
S(-2)         6.000e-11
   HS-             3.154e-11   3.153e-11   -10.501   -10.501    -0.000     (0)  
   H2S             2.763e-11   2.763e-11   -10.559   -10.559     0.000     (0)  
   S5-2            8.004e-14   7.993e-14   -13.097   -13.097    -0.001     (0)  
   S4-2            4.670e-14   4.663e-14   -13.331   -13.331    -0.001     (0)  
   S6-2            4.143e-14   4.137e-14   -13.383   -13.383    -0.001     (0)  
   S-2             3.805e-17   3.799e-17   -16.420   -16.420    -0.001     (0)  
   S3-2            1.646e-17   1.643e-17   -16.784   -16.784    -0.001     (0)  
   S2-2            9.340e-19   9.326e-19   -18.030   -18.030    -0.001     (0)  
   Fe(HS)2         1.763e-23   1.763e-23   -22.754   -22.754     0.000     (0)  
   Fe(HS)3-        6.056e-32   6.054e-32   -31.218   -31.218    -0.000     (0)  
S(6)          5.628e-36
   SO4-2           5.628e-36   5.619e-36   -35.250   -35.250    -0.001     (0)  
   HSO4-           0.000e+00   0.000e+00   -40.262   -40.262    -0.000     (0)  
   FeSO4           0.000e+00   0.000e+00   -43.701   -43.701     0.000     (0)  
   FeSO4+          0.000e+00   0.000e+00   -61.823   -61.823    -0.000     (0)  
   Fe(SO4)2-       0.000e+00   0.000e+00   -95.573   -95.574    -0.000     (0)  

------------------------------Saturation indices-------------------------------

  Phase               SI** log IAP   log K(298 K,   1 atm)

  Fe2(SO4)3      -170.32   -166.74    3.58  Fe2(SO4)3
  Fe3(OH)8        -35.92    -15.69   20.22  Fe3(OH)8
  Ferrihydrite    -14.39     -9.50    4.89  Fe(OH)3
  FeS(ppt)        -10.29    -14.20   -3.92  FeS
  Goethite        -10.00     -9.50    0.50  FeOOH
  Greigite        -44.57    -85.70  -41.13  Fe3S4
  Hematite        -14.98    -18.99   -4.01  Fe2O3
  Jarosite-H     -114.88   -126.98  -12.10  (H3O)Fe3(SO4)2(OH)6
  Lepidocrocite   -10.87     -9.50    1.37  FeOOH
  Mackinawite     -12.07    -14.20   -2.14  FeS
  Maghemite       -25.38    -18.99    6.39  Fe2O3
  Magnetite       -19.43    -15.69    3.74  Fe3O4
  Melanterite     -43.48    -45.95   -2.47  FeSO4:7H2O
  O2(g)           -82.16      0.96   83.12  O2
  pe_fix            6.76      6.76    0.00  e-
  pH_fix           -7.00     -7.00    0.00  H+
  Pyrite          -12.75    -31.23  -18.48  FeS2
  Pyrrhotite      -10.96    -14.20   -3.25  FeS
  Sulfur          -14.91    -17.02   -2.11  S

**For a gas, SI = log10(fugacity). Fugacity = pressure * phi / 1 atm.
  For ideal gases, phi = 1.

Reaction step 12.

Using solution 1.	PURE WATER
Using pure phase assemblage 1.	
Using reaction 1.	

Reaction 1.	

	  1.000e-11 moles of the following reaction have been added:

	                 Relative
	Reactant            moles

	Fe1S3                1.00000

	                 Relative
	Element             moles
	Fe                   1.00000
	S                    3.00000

-------------------------------Phase assemblage--------------------------------

                                                      Moles in assemblage
Phase               SI  log IAP  log K(T, P)   Initial       Final       Delta

Greigite        -43.34   -84.46    -41.13    0.000e+00           0   0.000e+00
Mackinawite     -11.71   -13.85     -2.14    0.000e+00           0   0.000e+00
Pyrite          -12.22   -30.70    -18.48    0.000e+00           0   0.000e+00
Pyrrhotite      -10.61   -13.85     -3.25    0.000e+00           0   0.000e+00

-----------------------------Solution composition------------------------------

	Elements           Molality       Moles

	Fe                3.000e-11   3.000e-11
	S                 9.000e-11   9.000e-11

----------------------------Description of solution----------------------------

                                       pH  =   6.999      Charge balance
                                       pe  =  -6.760      Adjusted to redox equilibrium
                        Activity of water  =   1.000
                 Ionic strength (mol/kgw)  =   1.004e-07
                       Mass of water (kg)  =   1.000e+00
[...]
  For ideal gases, phi = 1.

Reaction step 108.

Using solution 1.	PURE WATER
Using pure phase assemblage 1.	
Using reaction 1.	

Reaction 1.	

	  1.000e-02 moles of the following reaction have been added:

	                 Relative
	Reactant            moles

	Fe1S3                1.00000

	                 Relative
	Element             moles
	Fe                   1.00000
	S                    3.00000

-------------------------------Phase assemblage--------------------------------

                                                      Moles in assemblage
Phase               SI  log IAP  log K(T, P)   Initial       Final       Delta

Greigite        -36.29   -71.20    -34.90    0.000e+00           0   0.000e+00
Mackinawite     -12.97   -15.63     -2.66    0.000e+00           0   0.000e+00
Pyrite            0.00   -16.81    -16.81    8.111e-02   9.111e-02   1.000e-02
Pyrrhotite      -12.00   -15.63     -3.64    0.000e+00           0   0.000e+00

-----------------------------Solution composition------------------------------

	Elements           Molality       Moles

	Fe                8.755e-12   8.743e-12
	S                 9.124e-02   9.111e-02

----------------------------Description of solution----------------------------

                                       pH  =   1.730      Charge balance
                                       pe  =   1.512      Adjusted to redox equilibrium
                        Activity of water  =   0.998
                 Ionic strength (mol/kgw)  =   2.321e-02
                       Mass of water (kg)  =   9.986e-01
                 Total alkalinity (eq/kg)  =  -3.962e-02
                         Temperature (°C)  = 100.00
                  Electrical balance (eq)  =  -4.488e-11
 Percent error, 100*(Cat-|An|)/(Cat+|An|)  =  -0.00
                               Iterations  =   4
                                  Total H  = 1.110364e+02
                                  Total O  = 5.550622e+01

----------------------------Distribution of species----------------------------

                                               Log       Log       Log    mole V
   Species          Molality    Activity  Molality  Activity     Gamma    cm³/mol

   H+              2.151e-02   1.864e-02    -1.667    -1.730    -0.062      0.00
   OH-             5.944e-11   4.975e-11   -10.226   -10.303    -0.077     (0)  
   H2O             5.551e+01   9.981e-01     1.744    -0.001     0.000     18.80
Fe(2)         8.755e-12
   Fe+2            7.084e-12   3.730e-12   -11.150   -11.428    -0.279     (0)  
   FeSO4           1.667e-12   1.676e-12   -11.778   -11.776     0.002     (0)  
   Fe(HS)2         4.463e-15   4.487e-15   -14.350   -14.348     0.002     (0)  
   FeOH+           6.570e-18   5.560e-18   -17.182   -17.255    -0.073     (0)  
   Fe(HS)3-        6.749e-19   5.676e-19   -18.171   -18.246    -0.075     (0)  
   Fe(OH)2         4.627e-25   4.652e-25   -24.335   -24.332     0.002     (0)  
   Fe(OH)3-        1.970e-33   1.667e-33   -32.706   -32.778    -0.073     (0)  
Fe(3)         1.975e-20
   FeSO4+          1.048e-20   8.870e-21   -19.980   -20.052    -0.073     (0)  
   FeOH+2          7.693e-21   3.945e-21   -20.114   -20.404    -0.290     (0)  
   Fe+3            1.217e-21   3.352e-22   -20.915   -21.475    -0.560     (0)  
   Fe(SO4)2-       3.559e-22   2.994e-22   -21.449   -21.524    -0.075     (0)  
   Fe(OH)2+        2.422e-24   2.055e-24   -23.616   -23.687    -0.071     (0)  
   Fe(OH)3         1.286e-30   1.293e-30   -29.891   -29.888     0.002     (0)  
   Fe(OH)4-        8.160e-37   6.924e-37   -36.088   -36.160    -0.071     (0)  
   Fe2(OH)2+4      5.616e-40   0.000e+00   -39.251   -40.453    -1.202     (0)  
   Fe3(OH)4+5      0.000e+00   0.000e+00   -59.824   -61.702    -1.879     (0)  
H(0)          2.545e-10
   H2              1.273e-10   1.280e-10    -9.895    -9.893     0.002     (0)  
O(0)          0.000e+00
   O2              0.000e+00   0.000e+00   -53.259   -53.256     0.002     (0)  
S(-2)         7.143e-02
   H2S             7.143e-02   7.181e-02    -1.146    -1.144     0.002     (0)  
   HS-             1.388e-06   1.162e-06    -5.858    -5.935    -0.077     (0)  
   S5-2            7.420e-13   3.714e-13   -12.130   -12.430    -0.301     (0)  
   S4-2            4.959e-13   2.482e-13   -12.305   -12.605    -0.301     (0)  
   S6-2            1.638e-14   8.198e-15   -13.786   -14.086    -0.301     (0)  
   Fe(HS)2         4.463e-15   4.487e-15   -14.350   -14.348     0.002     (0)  
   S-2             8.900e-16   4.564e-16   -15.051   -15.341    -0.290     (0)  
   S3-2            2.216e-16   1.109e-16   -15.655   -15.955    -0.301     (0)  
   S2-2            1.765e-17   8.835e-18   -16.753   -17.054    -0.301     (0)  
   Fe(HS)3-        6.749e-19   5.676e-19   -18.171   -18.246    -0.075     (0)  
S(6)          1.981e-02
   HSO4-           1.811e-02   1.527e-02    -1.742    -1.816    -0.074     (0)  
   SO4-2           1.699e-03   8.445e-04    -2.770    -3.073    -0.303     (0)  
   FeSO4           1.667e-12   1.676e-12   -11.778   -11.776     0.002     (0)  
   FeSO4+          1.048e-20   8.870e-21   -19.980   -20.052    -0.073     (0)  
   Fe(SO4)2-       3.559e-22   2.994e-22   -21.449   -21.524    -0.075     (0)  

------------------------------Saturation indices-------------------------------

  Phase               SI** log IAP   log K(373 K,   1 atm)

  Fe2(SO4)3       -47.04    -52.17   -5.13  Fe2(SO4)3
  Fe3(OH)8        -60.77    -40.55   20.22  Fe3(OH)8
  Ferrihydrite    -21.18    -16.29    4.89  Fe(OH)3
  FeS(ppt)        -11.72    -15.63   -3.92  FeS
  Goethite        -14.65    -16.29   -1.63  FeOOH
  Greigite        -36.29    -71.20  -34.90  Fe3S4
  Hematite        -24.02    -32.57   -8.55  Fe2O3
  Jarosite-H      -41.70    -61.93  -20.22  (H3O)Fe3(SO4)2(OH)6
  Lepidocrocite   -17.66    -16.29    1.37  FeOOH
  Mackinawite     -12.97    -15.63   -2.66  FeS
  Maghemite       -38.96    -32.57    6.39  Fe2O3
  Magnetite       -36.85    -40.54   -3.70  Fe3O4
  Melanterite     -12.46    -14.51   -2.05  FeSO4:7H2O
  O2(g)           -50.44     12.97   63.40  O2
  pe_fix           -1.51     -1.51    0.00  e-
  pH_fix           -1.73     -1.73    0.00  H+
  Pyrite            0.00    -16.81  -16.81  FeS2
  Pyrrhotite      -12.00    -15.63   -3.64  FeS
  Sulfur            1.55     -1.18   -2.73  S

**For a gas, SI = log10(fugacity). Fugacity = pressure * phi / 1 atm.
  For ideal gases, phi = 1.

Reaction step 109.

Using solution 1.	PURE WATER
Using pure phase assemblage 1.	
Using reaction 1.	

Reaction 1.	

	  1.000e-02 moles of the following reaction have been added:

	                 Relative
	Reactant            moles

	Fe1S3                1.00000

	                 Relative
	Element             moles
	Fe                   1.00000
	S                    3.00000

-------------------------------Phase assemblage--------------------------------

                                                      Moles in assemblage
Phase               SI  log IAP  log K(T, P)   Initial       Final       Delta

Greigite        -36.41   -71.31    -34.90    0.000e+00           0   0.000e+00
Mackinawite     -13.03   -15.69     -2.66    0.000e+00           0   0.000e+00
Pyrite            0.00   -16.81    -16.81    9.111e-02   1.011e-01   1.000e-02
Pyrrhotite      -12.06   -15.69     -3.64    0.000e+00           0   0.000e+00

-----------------------------Solution composition------------------------------

	Elements           Molality       Moles

	Fe                8.812e-12   8.798e-12
	S                 1.013e-01   1.011e-01

----------------------------Description of solution----------------------------

                                       pH  =   1.683      Charge balance
                                       pe  =   1.566      Adjusted to redox equilibrium
                        Activity of water  =   0.998
                 Ionic strength (mol/kgw)  =   2.586e-02
                       Mass of water (kg)  =   9.984e-01
                 Total alkalinity (eq/kg)  =  -4.463e-02
                         Temperature (°C)  = 100.00
                  Electrical balance (eq)  =  -4.494e-11
 Percent error, 100*(Cat-|An|)/(Cat+|An|)  =  -0.00
                               Iterations  =   4
                                  Total H  = 1.110364e+02
                                  Total O  = 5.550622e+01

----------------------------Distribution of species----------------------------

                                               Log       Log       Log    mole V
   Species          Molality    Activity  Molality  Activity     Gamma    cm³/mol

   H+              2.409e-02   2.076e-02    -1.618    -1.683    -0.065      0.00
   OH-             5.379e-11   4.465e-11   -10.269   -10.350    -0.081     (0)  
   H2O             5.551e+01   9.979e-01     1.744    -0.001     0.000     18.80
Fe(2)         8.812e-12
   Fe+2            7.153e-12   3.667e-12   -11.146   -11.436    -0.290     (0)  
   FeSO4           1.655e-12   1.665e-12   -11.781   -11.779     0.003     (0)  
   Fe(HS)2         4.321e-15   4.347e-15   -14.364   -14.362     0.003     (0)  
   FeOH+           5.838e-18   4.904e-18   -17.234   -17.309    -0.076     (0)  
   Fe(HS)3-        6.541e-19   5.460e-19   -18.184   -18.263    -0.078     (0)  
   Fe(OH)2         3.661e-25   3.682e-25   -24.436   -24.434     0.003     (0)  
   Fe(OH)3-        1.410e-33   1.184e-33   -32.851   -32.926    -0.076     (0)  
Fe(3)         2.161e-20
   FeSO4+          1.187e-20   9.972e-21   -19.926   -20.001    -0.076     (0)  
   FeOH+2          7.909e-21   3.939e-21   -20.102   -20.405    -0.303     (0)  
   Fe+3            1.420e-21   3.729e-22   -20.848   -21.428    -0.581     (0)  
   Fe(SO4)2-       4.075e-22   3.401e-22   -21.390   -21.468    -0.078     (0)  
   Fe(OH)2+        2.185e-24   1.841e-24   -23.660   -23.735    -0.074     (0)  
   Fe(OH)3         1.034e-30   1.040e-30   -29.986   -29.983     0.003     (0)  
   Fe(OH)4-        5.930e-37   4.997e-37   -36.227   -36.301    -0.074     (0)  
   Fe2(OH)2+4      6.328e-40   0.000e+00   -39.199   -40.454    -1.256     (0)  
   Fe3(OH)4+5      0.000e+00   0.000e+00   -59.789   -61.751    -1.962     (0)  
H(0)          2.465e-10
   H2              1.232e-10   1.240e-10    -9.909    -9.907     0.003     (0)  
O(0)          0.000e+00
   O2              0.000e+00   0.000e+00   -53.232   -53.229     0.003     (0)  
S(-2)         7.896e-02
   H2S             7.896e-02   7.943e-02    -1.103    -1.100     0.003     (0)  
   HS-             1.390e-06   1.153e-06    -5.857    -5.938    -0.081     (0)  
   S5-2            6.818e-13   3.310e-13   -12.166   -12.480    -0.314     (0)  
   S4-2            4.556e-13   2.212e-13   -12.341   -12.655    -0.314     (0)  
   S6-2            1.505e-14   7.306e-15   -13.822   -14.136    -0.314     (0)  
   Fe(HS)2         4.321e-15   4.347e-15   -14.364   -14.362     0.003     (0)  
   S-2             8.166e-16   4.067e-16   -15.088   -15.391    -0.303     (0)  
   S3-2            2.036e-16   9.882e-17   -15.691   -16.005    -0.314     (0)  
   S2-2            1.622e-17   7.873e-18   -16.790   -17.104    -0.314     (0)  
   Fe(HS)3-        6.541e-19   5.460e-19   -18.184   -18.263    -0.078     (0)  
S(6)          2.232e-02
   HSO4-           2.054e-02   1.719e-02    -1.687    -1.765    -0.077     (0)  
   SO4-2           1.772e-03   8.534e-04    -2.751    -3.069    -0.317     (0)  
   FeSO4           1.655e-12   1.665e-12   -11.781   -11.779     0.003     (0)  
   FeSO4+          1.187e-20   9.972e-21   -19.926   -20.001    -0.076     (0)  
   Fe(SO4)2-       4.075e-22   3.401e-22   -21.390   -21.468    -0.078     (0)  

------------------------------Saturation indices-------------------------------

  Phase               SI** log IAP   log K(373 K,   1 atm)

  Fe2(SO4)3       -46.93    -52.06   -5.13  Fe2(SO4)3
  Fe3(OH)8        -61.06    -40.84   20.22  Fe3(OH)8
  Ferrihydrite    -21.27    -16.38    4.89  Fe(OH)3
  FeS(ppt)        -11.78    -15.69   -3.92  FeS
  Goethite        -14.75    -16.38   -1.63  FeOOH
  Greigite        -36.41    -71.31  -34.90  Fe3S4
  Hematite        -24.21    -32.76   -8.55  Fe2O3
  Jarosite-H      -41.79    -62.02  -20.22  (H3O)Fe3(SO4)2(OH)6
  Lepidocrocite   -17.75    -16.38    1.37  FeOOH
  Mackinawite     -13.03    -15.69   -2.66  FeS
  Maghemite       -39.15    -32.76    6.39  Fe2O3
  Magnetite       -37.14    -40.83   -3.70  Fe3O4
  Melanterite     -12.46    -14.51   -2.05  FeSO4:7H2O
  O2(g)           -50.41     12.99   63.40  O2
  pe_fix           -1.57     -1.57    0.00  e-
  pH_fix           -1.68     -1.68    0.00  H+
  Pyrite            0.00    -16.81  -16.81  FeS2
  Pyrrhotite      -12.06    -15.69   -3.64  FeS
  Sulfur            1.61     -1.12   -2.73  S

**For a gas, SI = log10(fugacity). Fugacity = pressure * phi / 1 atm.
  For ideal gases, phi = 1.

Reaction step 110.

Using solution 1.	PURE WATER
Using pure phase assemblage 1.	
Using reaction 1.	

Reaction 1.	

	  1.000e-02 moles of the following reaction have been added:

	                 Relative
	Reactant            moles

	Fe1S3                1.00000

	                 Relative
	Element             moles
	Fe                   1.00000
	S                    3.00000

-------------------------------Phase assemblage--------------------------------

                                                      Moles in assemblage
Phase               SI  log IAP  log K(T, P)   Initial       Final       Delta

Greigite        -36.51   -71.42    -34.90    0.000e+00           0   0.000e+00
Mackinawite     -13.08   -15.74     -2.66    0.000e+00           0   0.000e+00
Pyrite            0.00   -16.81    -16.81    1.011e-01   1.111e-01   1.000e-02
Pyrrhotite      -12.11   -15.74     -3.64    0.000e+00           0   0.000e+00

-----------------------------Solution composition------------------------------

	Elements           Molality       Moles

	Fe                8.847e-12   8.831e-12
	S                 1.113e-01   1.111e-01

----------------------------Description of solution----------------------------

                                       pH  =   1.641      Charge balance
                                       pe  =   1.614      Adjusted to redox equilibrium
                        Activity of water  =   0.998
                 Ionic strength (mol/kgw)  =   2.851e-02
                       Mass of water (kg)  =   9.982e-01
                 Total alkalinity (eq/kg)  =  -4.965e-02
                         Temperature (°C)  = 100.00
                  Electrical balance (eq)  =  -4.497e-11
 Percent error, 100*(Cat-|An|)/(Cat+|An|)  =  -0.00
                               Iterations  =   4
                                  Total H  = 1.110364e+02
                                  Total O  = 5.550622e+01

----------------------------Distribution of species----------------------------

                                               Log       Log       Log    mole V
   Species          Molality    Activity  Molality  Activity     Gamma    cm³/mol

   H+              2.667e-02   2.287e-02    -1.574    -1.641    -0.067      0.00
   OH-             4.920e-11   4.052e-11   -10.308   -10.392    -0.084     (0)  
   H2O             5.551e+01   9.977e-01     1.744    -0.001     0.000     18.80
Fe(2)         8.847e-12
   Fe+2            7.204e-12   3.603e-12   -11.142   -11.443    -0.301     (0)  
   FeSO4           1.639e-12   1.649e-12   -11.786   -11.783     0.003     (0)  
   Fe(HS)2         4.201e-15   4.228e-15   -14.377   -14.374     0.003     (0)  
   FeOH+           5.241e-18   4.374e-18   -17.281   -17.359    -0.079     (0)  
   Fe(HS)3-        6.375e-19   5.283e-19   -18.196   -18.277    -0.082     (0)  
   Fe(OH)2         2.961e-25   2.980e-25   -24.529   -24.526     0.003     (0)  
   Fe(OH)3-        1.043e-33   8.700e-34   -32.982   -33.060    -0.079     (0)  
Fe(3)         2.341e-20
   FeSO4+          1.323e-20   1.104e-20   -19.879   -19.957    -0.079     (0)  
   FeOH+2          8.093e-21   3.924e-21   -20.092   -20.406    -0.314     (0)  
   Fe+3            1.629e-21   4.093e-22   -20.788   -21.388    -0.600     (0)  
   Fe(SO4)2-       4.580e-22   3.796e-22   -21.339   -21.421    -0.082     (0)  
   Fe(OH)2+        1.989e-24   1.665e-24   -23.701   -23.779    -0.077     (0)  
   Fe(OH)3         8.475e-31   8.531e-31   -30.072   -30.069     0.003     (0)  
   Fe(OH)4-        4.445e-37   3.721e-37   -36.352   -36.429    -0.077     (0)  
   Fe2(OH)2+4      7.031e-40   0.000e+00   -39.153   -40.458    -1.305     (0)  
   Fe3(OH)4+5      0.000e+00   0.000e+00   -59.760   -61.799    -2.039     (0)  
H(0)          2.396e-10
   H2              1.198e-10   1.206e-10    -9.922    -9.919     0.003     (0)  
O(0)          0.000e+00
   O2              0.000e+00   0.000e+00   -53.208   -53.205     0.003     (0)  
S(-2)         8.649e-02
   H2S             8.648e-02   8.705e-02    -1.063    -1.060     0.003     (0)  
   HS-             1.393e-06   1.147e-06    -5.856    -5.940    -0.084     (0)  
   S5-2            6.335e-13   2.989e-13   -12.198   -12.524    -0.326     (0)  
   S4-2            4.233e-13   1.997e-13   -12.373   -12.700    -0.326     (0)  
   S6-2            1.398e-14   6.598e-15   -13.854   -14.181    -0.326     (0)  
   Fe(HS)2         4.201e-15   4.228e-15   -14.377   -14.374     0.003     (0)  
   S-2             7.577e-16   3.673e-16   -15.121   -15.435    -0.314     (0)  
   S3-2            1.891e-16   8.925e-17   -15.723   -16.049    -0.326     (0)  
   S2-2            1.507e-17   7.111e-18   -16.822   -17.148    -0.326     (0)  
   Fe(HS)3-        6.375e-19   5.283e-19   -18.196   -18.277    -0.082     (0)  
S(6)          2.482e-02
   HSO4-           2.298e-02   1.910e-02    -1.639    -1.719    -0.080     (0)  
   SO4-2           1.841e-03   8.606e-04    -2.735    -3.065    -0.330     (0)  
   FeSO4           1.639e-12   1.649e-12   -11.786   -11.783     0.003     (0)  
   FeSO4+          1.323e-20   1.104e-20   -19.879   -19.957    -0.079     (0)  
   Fe(SO4)2-       4.580e-22   3.796e-22   -21.339   -21.421    -0.082     (0)  

------------------------------Saturation indices-------------------------------

  Phase               SI** log IAP   log K(373 K,   1 atm)

  Fe2(SO4)3       -46.84    -51.97   -5.13  Fe2(SO4)3
  Fe3(OH)8        -61.32    -41.10   20.22  Fe3(OH)8
  Ferrihydrite    -21.36    -16.47    4.89  Fe(OH)3
  FeS(ppt)        -11.83    -15.74   -3.92  FeS
  Goethite        -14.83    -16.47   -1.63  FeOOH
  Greigite        -36.51    -71.42  -34.90  Fe3S4
  Hematite        -24.38    -32.93   -8.55  Fe2O3
  Jarosite-H      -41.87    -62.10  -20.22  (H3O)Fe3(SO4)2(OH)6
  Lepidocrocite   -17.84    -16.47    1.37  FeOOH
  Mackinawite     -13.08    -15.74   -2.66  FeS
  Maghemite       -39.32    -32.93    6.39  Fe2O3
  Magnetite       -37.40    -41.10   -3.70  Fe3O4
  Melanterite     -12.47    -14.52   -2.05  FeSO4:7H2O
  O2(g)           -50.39     13.02   63.40  O2
  pe_fix           -1.61     -1.61    0.00  e-
  pH_fix           -1.64     -1.64    0.00  H+
  Pyrite            0.00    -16.81  -16.81  FeS2
  Pyrrhotite      -12.11    -15.74   -3.64  FeS
  Sulfur            1.66     -1.07   -2.73  S

**For a gas, SI = log10(fugacity). Fugacity = pressure * phi / 1 atm.
  For ideal gases, phi = 1.

------------------
End of simulation.
------------------

------------------------------------
Reading input data for simulation 5.
------------------------------------

-------------------------------
End of Run after 0.444 Seconds.
-------------------------------

