   Input file: C:\Users\jt2020\OneDrive - Imperial College London\Data\Thermodynamics\Thermodynamics\Phreeq\Reaction Progress\Changing temp\HS-\HS-  pH 8, -400 mV Fe dom unfixed.pqi
  Output file: C:\Users\jt2020\OneDrive - Imperial College London\Data\Thermodynamics\Thermodynamics\Phreeq\Reaction Progress\Changing temp\HS-\HS-  pH 8, -400 mV Fe dom unfixed.pqo
Database file: C:\Users\jt2020\OneDrive - Imperial College London\Data\Thermodynamics\Thermodynamics\Phreeq\Reaction Progress\All models with pyrrhotite\Database\llnlpyrrminteq.dat

------------------
Reading data base.
------------------

	SOLUTION_MASTER_SPECIES
	SOLUTION_SPECIES
	SOLUTION_SPECIES
	PHASES
	SURFACE_MASTER_SPECIES
	SURFACE_SPECIES
	END
------------------------------------
Reading input data for simulation 1.
------------------------------------

	DATABASE C:\Users\jt2020\OneDrive - Imperial College London\Data\Thermodynamics\Thermodynamics\Phreeq\Reaction Progress\All models with pyrrhotite\Database\llnlpyrrminteq.dat
	TITLE HS- -400mV pH 8 RT
	SOLUTION 1  PURE WATER
	            pH    8 charge
	          temp   25.0
	           pe     -6.76       #-400 mV 
	PHASES
	       pH_fix
	                H + = H +
	                log_k = 0.0
	       pe_fix
	                e- = e-
	                log_k 0.0
	       Mackinawite   
	                FeS + H+ = Fe+2 + HS-
	                log_k          -2.1371
	                delta_h        -3.578 kcal
	       Pyrrhotite
	                FeS + H+ = Fe+2 + HS-
	                log_k     -3.24554
	                delta_h        -2.646 kcal
	        Greigite
	                Fe3S4 + 4H+ = 2Fe+3 + Fe+2 + 4HS-
	                log_k   -41.128
	                delta_h  42.2473      kcal
	        Pyrite
	                FeS2 + 2H+ + 2e- = Fe+2 + 2HS-
	                log_k          -18.479
	                delta_h        11.3    kcal
	END
-----
TITLE
-----

 HS- -400mV pH 8 RT

-------------------------------------------
Beginning of initial solution calculations.
-------------------------------------------

Initial solution 1.	PURE WATER

-----------------------------Solution composition------------------------------

	Elements           Molality       Moles

	Pure water     

----------------------------Description of solution----------------------------

                                       pH  =   6.999      Charge balance
                                       pe  =  -6.760    
                        Activity of water  =   1.000
                 Ionic strength (mol/kgw)  =   1.003e-07
                       Mass of water (kg)  =   1.000e+00
                 Total alkalinity (eq/kg)  =   4.513e-21
                         Temperature (°C)  =  25.00
                  Electrical balance (eq)  =  -4.513e-21
 Percent error, 100*(Cat-|An|)/(Cat+|An|)  =  -0.00
                               Iterations  =   6
                                  Total H  = 1.110129e+02
                                  Total O  = 5.550622e+01

----------------------------Distribution of species----------------------------

                                               Log       Log       Log    mole V
   Species          Molality    Activity  Molality  Activity     Gamma    cm³/mol

   OH-             1.003e-07   1.002e-07    -6.999    -6.999    -0.000     (0)  
   H+              1.003e-07   1.002e-07    -6.999    -6.999    -0.000      0.00
   H2O             5.551e+01   1.000e+00     1.744    -0.000     0.000     18.07
H(0)          4.710e-04
   H2              2.355e-04   2.355e-04    -3.628    -3.628     0.000     (0)  
O(0)          0.000e+00
   O2              0.000e+00   0.000e+00   -85.124   -85.124     0.000     (0)  

------------------------------Saturation indices-------------------------------

  Phase               SI** log IAP   log K(298 K,   1 atm)

  O2(g)           -82.16      0.96   83.12  O2
  pe_fix            6.76      6.76    0.00  e-
  pH_fix           -7.00     -7.00    0.00  H+

**For a gas, SI = log10(fugacity). Fugacity = pressure * phi / 1 atm.
  For ideal gases, phi = 1.

------------------
End of simulation.
------------------

------------------------------------
Reading input data for simulation 2.
------------------------------------

	INCREMENTAL_REACTIONS
	REACTION
	Fe3S1 1
	10*1e-12 10*1e-11 10*1e-10 10*1e-9 10*1e-8 10*1e-7 10*1e-6 10*1e-5 10*1e-4  10*1e-3  10*1e-2 mol
	USE solution 1
	EQUILIBRIUM_PHASES 1
	        Mackinawite     0.0     0.0
	        Pyrrhotite      0.0     0.0
	        Greigite        0.0     0.0
	        Pyrite          0.0     0.0
	USER_GRAPH 1 Simulation 6
	    -headings               Pyrite Greigite Mackinawite Pyrrhotite
	    -axis_titles            "Fe and S added, Log moles" "Mineral, moles"
	    -chart_title            "Iron dominant system with HS- as the oxidant. unfix -400mV at pH 8"
	    -axis_scale sy_axis     auto auto auto auto log
	    -initial_solutions      false
	    -connect_simulations    false
	    -axis_scale y_axis      auto auto auto auto Log
	    -axis_scale sy_axis	    auto auto auto auto Log
	    -plot_concentration_vs  x
	  -start
	 5 PUT(GET(1) + RXN, 1)
	  20 PLOT_XY log10(GET(1)), EQUI("Pyrite") color = Green, line_w = 0,   	symbol = Plus, symbol_size = 5, y_axis = 2
	  30 PLOT_XY log10(GET(1)), EQUI("Greigite") color = Blue, line_w = 0,   	symbol = Plus, symbol_size = 5, y_axis = 2
	  40 PLOT_XY log10(GET(1)), EQUI("Mackinawite") color = Cyan, line_w = 0,   	symbol = Plus, symbol_size = 5, y_axis = 2
	  60 PLOT_XY log10(GET(1)), EQUI("Pyrrhotite") color = Red, line_w = 0,   	symbol = Plus, symbol_size = 5, y_axis = 2
	  -end
	    -active                 true
	SELECTED_OUTPUT
	    file                 HS Fe both unbuffered RT.csv
	    saturation_indices   Mackinawite  Greigite  Pyrite Pyrrhotite
	    reaction             
	    totals               Fe S 
	    equilibrium_phases   Mackinawite  Greigite  Pyrite Pyrrhotite
	END
-----------------------------------------
Beginning of batch-reaction calculations.
-----------------------------------------

Reaction step 1.

Using solution 1.	PURE WATER
Using pure phase assemblage 1.	
Using reaction 1.	

Reaction 1.	

	  1.000e-12 moles of the following reaction have been added:

	                 Relative
	Reactant            moles

	Fe3S1                1.00000

	                 Relative
	Element             moles
	Fe                   3.00000
	S                    1.00000

-------------------------------Phase assemblage--------------------------------

                                                      Moles in assemblage
Phase               SI  log IAP  log K(T, P)   Initial       Final       Delta

Greigite        -54.15   -95.28    -41.13    0.000e+00           0   0.000e+00
Mackinawite     -14.67   -16.81     -2.14    0.000e+00           0   0.000e+00
Pyrite          -17.13   -35.61    -18.48    0.000e+00           0   0.000e+00
Pyrrhotite      -13.56   -16.81     -3.25    0.000e+00           0   0.000e+00

-----------------------------Solution composition------------------------------

	Elements           Molality       Moles

	Fe                3.000e-12   3.000e-12
	S                 1.000e-12   1.000e-12

----------------------------Description of solution----------------------------

                                       pH  =   6.999      Charge balance
                                       pe  =  -6.760      Adjusted to redox equilibrium
                        Activity of water  =   1.000
                 Ionic strength (mol/kgw)  =   1.003e-07
                       Mass of water (kg)  =   1.000e+00
                 Total alkalinity (eq/kg)  =   6.000e-12
                         Temperature (°C)  =  25.00
                  Electrical balance (eq)  =  -1.126e-18
 Percent error, 100*(Cat-|An|)/(Cat+|An|)  =  -0.00
                               Iterations  =   1
                                  Total H  = 1.110129e+02
                                  Total O  = 5.550622e+01

----------------------------Distribution of species----------------------------

                                               Log       Log       Log    mole V
   Species          Molality    Activity  Molality  Activity     Gamma    cm³/mol

   OH-             1.003e-07   1.002e-07    -6.999    -6.999    -0.000     (0)  
   H+              1.003e-07   1.002e-07    -6.999    -6.999    -0.000      0.00
   H2O             5.551e+01   1.000e+00     1.744    -0.000     0.000     18.07
Fe(2)         3.000e-12
   Fe+2            2.991e-12   2.986e-12   -11.524   -11.525    -0.001     (0)  
   FeOH+           9.425e-15   9.421e-15   -14.026   -14.026    -0.000     (0)  
   Fe(OH)2         8.001e-19   8.001e-19   -18.097   -18.097     0.000     (0)  
   Fe(OH)3-        2.967e-22   2.966e-22   -21.528   -21.528    -0.000     (0)  
   Fe(HS)2         7.347e-28   7.347e-28   -27.134   -27.134     0.000     (0)  
   Fe(HS)3-        4.205e-38   4.204e-38   -37.376   -37.376    -0.000     (0)  
   FeSO4           0.000e+00   0.000e+00   -46.303   -46.303     0.000     (0)  
Fe(3)         1.159e-23
   Fe(OH)2+        1.026e-23   1.026e-23   -22.989   -22.989    -0.000     (0)  
   Fe(OH)3         1.203e-24   1.203e-24   -23.920   -23.920     0.000     (0)  
   Fe(OH)4-        1.200e-25   1.200e-25   -24.921   -24.921    -0.000     (0)  
   FeOH+2          3.110e-27   3.105e-27   -26.507   -26.508    -0.001     (0)  
   Fe+3            4.837e-32   4.821e-32   -31.315   -31.317    -0.001     (0)  
   Fe2(OH)2+4      0.000e+00   0.000e+00   -51.583   -51.586    -0.003     (0)  
   FeSO4+          0.000e+00   0.000e+00   -64.425   -64.425    -0.000     (0)  
   Fe3(OH)4+5      0.000e+00   0.000e+00   -72.251   -72.255    -0.004     (0)  
   Fe(SO4)2-       0.000e+00   0.000e+00   -99.954   -99.954    -0.000     (0)  
H(0)          4.710e-04
   H2              2.355e-04   2.355e-04    -3.628    -3.628     0.000     (0)  
O(0)          0.000e+00
   O2              0.000e+00   0.000e+00   -85.124   -85.124     0.000     (0)  
S(-2)         1.000e-12
   HS-             5.256e-13   5.254e-13   -12.279   -12.279    -0.000     (0)  
   H2S             4.604e-13   4.604e-13   -12.337   -12.337     0.000     (0)  
   S5-2            1.334e-15   1.332e-15   -14.875   -14.875    -0.001     (0)  
   S4-2            7.783e-16   7.772e-16   -15.109   -15.109    -0.001     (0)  
   S6-2            6.905e-16   6.895e-16   -15.161   -15.161    -0.001     (0)  
   S-2             6.341e-19   6.332e-19   -18.198   -18.198    -0.001     (0)  
   S3-2            2.743e-19   2.739e-19   -18.562   -18.562    -0.001     (0)  
   S2-2            1.557e-20   1.554e-20   -19.808   -19.808    -0.001     (0)  
   Fe(HS)2         7.347e-28   7.347e-28   -27.134   -27.134     0.000     (0)  
   Fe(HS)3-        4.205e-38   4.204e-38   -37.376   -37.376    -0.000     (0)  
S(6)          9.379e-38
   SO4-2           9.379e-38   9.365e-38   -37.028   -37.028    -0.001     (0)  
   HSO4-           0.000e+00   0.000e+00   -42.040   -42.041    -0.000     (0)  
   FeSO4           0.000e+00   0.000e+00   -46.303   -46.303     0.000     (0)  
   FeSO4+          0.000e+00   0.000e+00   -64.425   -64.425    -0.000     (0)  
   Fe(SO4)2-       0.000e+00   0.000e+00   -99.954   -99.954    -0.000     (0)  

------------------------------Saturation indices-------------------------------

  Phase               SI** log IAP   log K(298 K,   1 atm)

  Fe2(SO4)3      -177.30   -173.72    3.58  Fe2(SO4)3
  Fe3(OH)8        -38.39    -18.17   20.22  Fe3(OH)8
  Ferrihydrite    -15.21    -10.32    4.89  Fe(OH)3
  FeS(ppt)        -12.89    -16.81   -3.92  FeS
  Goethite        -10.82    -10.32    0.50  FeOOH
  Greigite        -54.15    -95.28  -41.13  Fe3S4
  Hematite        -16.63    -20.64   -4.01  Fe2O3
  Jarosite-H     -120.91   -133.01  -12.10  (H3O)Fe3(SO4)2(OH)6
  Lepidocrocite   -11.69    -10.32    1.37  FeOOH
  Mackinawite     -14.67    -16.81   -2.14  FeS
  Maghemite       -27.03    -20.64    6.39  Fe2O3
  Magnetite       -21.90    -18.17    3.74  Fe3O4
  Melanterite     -46.08    -48.55   -2.47  FeSO4:7H2O
  O2(g)           -82.16      0.96   83.12  O2
  pe_fix            6.76      6.76    0.00  e-
  pH_fix           -7.00     -7.00    0.00  H+
  Pyrite          -17.13    -35.61  -18.48  FeS2
  Pyrrhotite      -13.56    -16.81   -3.25  FeS
  Sulfur          -16.69    -18.80   -2.11  S

**For a gas, SI = log10(fugacity). Fugacity = pressure * phi / 1 atm.
  For ideal gases, phi = 1.

Reaction step 2.

Using solution 1.	PURE WATER
Using pure phase assemblage 1.	
Using reaction 1.	

Reaction 1.	

	  1.000e-12 moles of the following reaction have been added:

	                 Relative
	Reactant            moles

	Fe3S1                1.00000

	                 Relative
	Element             moles
	Fe                   3.00000
	S                    1.00000

-------------------------------Phase assemblage--------------------------------

                                                      Moles in assemblage
Phase               SI  log IAP  log K(T, P)   Initial       Final       Delta

Greigite        -52.05   -93.17    -41.13    0.000e+00           0   0.000e+00
Mackinawite     -14.07   -16.20     -2.14    0.000e+00           0   0.000e+00
Pyrite          -16.22   -34.70    -18.48    0.000e+00           0   0.000e+00
Pyrrhotite      -12.96   -16.20     -3.25    0.000e+00           0   0.000e+00

-----------------------------Solution composition------------------------------

	Elements           Molality       Moles

	Fe                6.000e-12   6.000e-12
	S                 2.000e-12   2.000e-12

----------------------------Description of solution----------------------------

                                       pH  =   6.999      Charge balance
                                       pe  =  -6.760      Adjusted to redox equilibrium
                        Activity of water  =   1.000
                 Ionic strength (mol/kgw)  =   1.003e-07
                       Mass of water (kg)  =   1.000e+00
                 Total alkalinity (eq/kg)  =   1.200e-11
                         Temperature (°C)  =  25.00
                  Electrical balance (eq)  =  -1.125e-18
 Percent error, 100*(Cat-|An|)/(Cat+|An|)  =  -0.00
                               Iterations  =   5
                                  Total H  = 1.110129e+02
                                  Total O  = 5.550622e+01

----------------------------Distribution of species----------------------------

                                               Log       Log       Log    mole V
   Species          Molality    Activity  Molality  Activity     Gamma    cm³/mol

   OH-             1.003e-07   1.002e-07    -6.999    -6.999    -0.000     (0)  
   H+              1.003e-07   1.002e-07    -6.999    -6.999    -0.000      0.00
   H2O             5.551e+01   1.000e+00     1.744    -0.000     0.000     18.07
Fe(2)         6.000e-12
   Fe+2            5.981e-12   5.972e-12   -11.223   -11.224    -0.001     (0)  
   FeOH+           1.885e-14   1.884e-14   -13.725   -13.725    -0.000     (0)  
   Fe(OH)2         1.600e-18   1.600e-18   -17.796   -17.796     0.000     (0)  
   Fe(OH)3-        5.934e-22   5.932e-22   -21.227   -21.227    -0.000     (0)  
   Fe(HS)2         5.878e-27   5.878e-27   -26.231   -26.231     0.000     (0)  
   Fe(HS)3-        6.729e-37   6.726e-37   -36.172   -36.172    -0.000     (0)  
   FeSO4           0.000e+00   0.000e+00   -45.701   -45.701     0.000     (0)  
Fe(3)         2.318e-23
   Fe(OH)2+        2.053e-23   2.052e-23   -22.688   -22.688    -0.000     (0)  
   Fe(OH)3         2.405e-24   2.405e-24   -23.619   -23.619     0.000     (0)  
   Fe(OH)4-        2.401e-25   2.400e-25   -24.620   -24.620    -0.000     (0)  
   FeOH+2          6.220e-27   6.211e-27   -26.206   -26.207    -0.001     (0)  
   Fe+3            9.673e-32   9.641e-32   -31.014   -31.016    -0.001     (0)  
   Fe2(OH)2+4      0.000e+00   0.000e+00   -50.981   -50.984    -0.003     (0)  
   FeSO4+          0.000e+00   0.000e+00   -63.823   -63.823    -0.000     (0)  
   Fe3(OH)4+5      0.000e+00   0.000e+00   -71.348   -71.352    -0.004     (0)  
   Fe(SO4)2-       0.000e+00   0.000e+00   -99.051   -99.051    -0.000     (0)  
H(0)          4.710e-04
   H2              2.355e-04   2.355e-04    -3.628    -3.628     0.000     (0)  
O(0)          0.000e+00
   O2              0.000e+00   0.000e+00   -85.124   -85.124     0.000     (0)  
S(-2)         2.000e-12
   HS-             1.051e-12   1.051e-12   -11.978   -11.978    -0.000     (0)  
   H2S             9.209e-13   9.209e-13   -12.036   -12.036     0.000     (0)  
   S5-2            2.668e-15   2.664e-15   -14.574   -14.574    -0.001     (0)  
   S4-2            1.557e-15   1.554e-15   -14.808   -14.808    -0.001     (0)  
   S6-2            1.381e-15   1.379e-15   -14.860   -14.860    -0.001     (0)  
   S-2             1.268e-18   1.266e-18   -17.897   -17.897    -0.001     (0)  
   S3-2            5.486e-19   5.477e-19   -18.261   -18.261    -0.001     (0)  
   S2-2            3.113e-20   3.109e-20   -19.507   -19.507    -0.001     (0)  
   Fe(HS)2         5.878e-27   5.878e-27   -26.231   -26.231     0.000     (0)  
   Fe(HS)3-        6.729e-37   6.726e-37   -36.172   -36.172    -0.000     (0)  
S(6)          1.876e-37
   SO4-2           1.876e-37   1.873e-37   -36.727   -36.727    -0.001     (0)  
   HSO4-           0.000e+00   0.000e+00   -41.739   -41.740    -0.000     (0)  
   FeSO4           0.000e+00   0.000e+00   -45.701   -45.701     0.000     (0)  
   FeSO4+          0.000e+00   0.000e+00   -63.823   -63.823    -0.000     (0)  
   Fe(SO4)2-       0.000e+00   0.000e+00   -99.051   -99.051    -0.000     (0)  

------------------------------Saturation indices-------------------------------

  Phase               SI** log IAP   log K(298 K,   1 atm)

  Fe2(SO4)3      -175.79   -172.21    3.58  Fe2(SO4)3
  Fe3(OH)8        -37.49    -17.26   20.22  Fe3(OH)8
  Ferrihydrite    -14.91    -10.02    4.89  Fe(OH)3
  FeS(ppt)        -12.29    -16.20   -3.92  FeS
  Goethite        -10.52    -10.02    0.50  FeOOH
  Greigite        -52.05    -93.17  -41.13  Fe3S4
  Hematite        -16.03    -20.04   -4.01  Fe2O3
  Jarosite-H     -119.41   -131.51  -12.10  (H3O)Fe3(SO4)2(OH)6
  Lepidocrocite   -11.39    -10.02    1.37  FeOOH
  Mackinawite     -14.07    -16.20   -2.14  FeS
  Maghemite       -26.42    -20.04    6.39  Fe2O3
  Magnetite       -21.00    -17.26    3.74  Fe3O4
  Melanterite     -45.48    -47.95   -2.47  FeSO4:7H2O
  O2(g)           -82.16      0.96   83.12  O2
  pe_fix            6.76      6.76    0.00  e-
  pH_fix           -7.00     -7.00    0.00  H+
  Pyrite          -16.22    -34.70  -18.48  FeS2
  Pyrrhotite      -12.96    -16.20   -3.25  FeS
  Sulfur          -16.39    -18.50   -2.11  S

**For a gas, SI = log10(fugacity). Fugacity = pressure * phi / 1 atm.
  For ideal gases, phi = 1.

Reaction step 3.

Using solution 1.	PURE WATER
Using pure phase assemblage 1.	
Using reaction 1.	

Reaction 1.	

	  1.000e-12 moles of the following reaction have been added:

	                 Relative
	Reactant            moles

	Fe3S1                1.00000

	                 Relative
	Element             moles
	Fe                   3.00000
	S                    1.00000

-------------------------------Phase assemblage--------------------------------

                                                      Moles in assemblage
Phase               SI  log IAP  log K(T, P)   Initial       Final       Delta

Greigite        -50.81   -91.94    -41.13    0.000e+00           0   0.000e+00
Mackinawite     -13.71   -15.85     -2.14    0.000e+00           0   0.000e+00
Pyrite          -15.70   -34.17    -18.48    0.000e+00           0   0.000e+00
Pyrrhotite      -12.61   -15.85     -3.25    0.000e+00           0   0.000e+00

-----------------------------Solution composition------------------------------

	Elements           Molality       Moles

	Fe                9.000e-12   9.000e-12
	S                 3.000e-12   3.000e-12

----------------------------Description of solution----------------------------

                                       pH  =   6.999      Charge balance
                                       pe  =  -6.760      Adjusted to redox equilibrium
                        Activity of water  =   1.000
                 Ionic strength (mol/kgw)  =   1.003e-07
                       Mass of water (kg)  =   1.000e+00
                 Total alkalinity (eq/kg)  =   1.800e-11
                         Temperature (°C)  =  25.00
                  Electrical balance (eq)  =  -1.125e-18
 Percent error, 100*(Cat-|An|)/(Cat+|An|)  =  -0.00
                               Iterations  =   4
                                  Total H  = 1.110129e+02
                                  Total O  = 5.550622e+01

----------------------------Distribution of species----------------------------

                                               Log       Log       Log    mole V
   Species          Molality    Activity  Molality  Activity     Gamma    cm³/mol

   OH-             1.003e-07   1.002e-07    -6.999    -6.999    -0.000     (0)  
   H+              1.003e-07   1.002e-07    -6.999    -6.999    -0.000      0.00
   H2O             5.551e+01   1.000e+00     1.744    -0.000     0.000     18.07
Fe(2)         9.000e-12
   Fe+2            8.972e-12   8.958e-12   -11.047   -11.048    -0.001     (0)  
   FeOH+           2.828e-14   2.827e-14   -13.549   -13.549    -0.000     (0)  
   Fe(OH)2         2.400e-18   2.400e-18   -17.620   -17.620     0.000     (0)  
   Fe(OH)3-        8.902e-22   8.899e-22   -21.051   -21.051    -0.000     (0)  
   Fe(HS)2         1.984e-26   1.984e-26   -25.702   -25.702     0.000     (0)  
   Fe(HS)3-        3.407e-36   3.405e-36   -35.468   -35.468    -0.000     (0)  
   FeSO4           0.000e+00   0.000e+00   -45.349   -45.349     0.000     (0)  
Fe(3)         3.477e-23
   Fe(OH)2+        3.079e-23   3.078e-23   -22.512   -22.512    -0.000     (0)  
   Fe(OH)3         3.608e-24   3.608e-24   -23.443   -23.443     0.000     (0)  
   Fe(OH)4-        3.602e-25   3.600e-25   -24.444   -24.444    -0.000     (0)  
   FeOH+2          9.330e-27   9.316e-27   -26.030   -26.031    -0.001     (0)  
   Fe+3            1.451e-31   1.446e-31   -30.838   -30.840    -0.001     (0)  
   Fe2(OH)2+4      0.000e+00   0.000e+00   -50.629   -50.632    -0.003     (0)  
   FeSO4+          0.000e+00   0.000e+00   -63.471   -63.471    -0.000     (0)  
   Fe3(OH)4+5      0.000e+00   0.000e+00   -70.819   -70.823    -0.004     (0)  
   Fe(SO4)2-       0.000e+00   0.000e+00   -98.522   -98.522    -0.000     (0)  
H(0)          4.710e-04
   H2              2.355e-04   2.355e-04    -3.628    -3.628     0.000     (0)  
O(0)          0.000e+00
   O2              0.000e+00   0.000e+00   -85.124   -85.124     0.000     (0)  
S(-2)         3.000e-12
   HS-             1.577e-12   1.576e-12   -11.802   -11.802    -0.000     (0)  
   H2S             1.381e-12   1.381e-12   -11.860   -11.860     0.000     (0)  
   S5-2            4.002e-15   3.997e-15   -14.398   -14.398    -0.001     (0)  
   S4-2            2.335e-15   2.332e-15   -14.632   -14.632    -0.001     (0)  
   S6-2            2.072e-15   2.069e-15   -14.684   -14.684    -0.001     (0)  
   S-2             1.903e-18   1.900e-18   -17.721   -17.721    -0.001     (0)  
   S3-2            8.229e-19   8.216e-19   -18.085   -18.085    -0.001     (0)  
   S2-2            4.670e-20   4.663e-20   -19.331   -19.331    -0.001     (0)  
   Fe(HS)2         1.984e-26   1.984e-26   -25.702   -25.702     0.000     (0)  
   Fe(HS)3-        3.407e-36   3.405e-36   -35.468   -35.468    -0.000     (0)  
S(6)          2.814e-37
   SO4-2           2.814e-37   2.810e-37   -36.551   -36.551    -0.001     (0)  
   HSO4-           0.000e+00   0.000e+00   -41.563   -41.563    -0.000     (0)  
   FeSO4           0.000e+00   0.000e+00   -45.349   -45.349     0.000     (0)  
   FeSO4+          0.000e+00   0.000e+00   -63.471   -63.471    -0.000     (0)  
   Fe(SO4)2-       0.000e+00   0.000e+00   -98.522   -98.522    -0.000     (0)  

------------------------------Saturation indices-------------------------------

  Phase               SI** log IAP   log K(298 K,   1 atm)

  Fe2(SO4)3      -174.91   -171.33    3.58  Fe2(SO4)3
  Fe3(OH)8        -36.96    -16.74   20.22  Fe3(OH)8
  Ferrihydrite    -14.73     -9.84    4.89  Fe(OH)3
  FeS(ppt)        -11.94    -15.85   -3.92  FeS
  Goethite        -10.34     -9.84    0.50  FeOOH
  Greigite        -50.81    -91.94  -41.13  Fe3S4
  Hematite        -15.68    -19.69   -4.01  Fe2O3
  Jarosite-H     -118.53   -130.63  -12.10  (H3O)Fe3(SO4)2(OH)6
  Lepidocrocite   -11.21     -9.84    1.37  FeOOH
  Mackinawite     -13.71    -15.85   -2.14  FeS
  Maghemite       -26.07    -19.69    6.39  Fe2O3
  Magnetite       -20.47    -16.74    3.74  Fe3O4
  Melanterite     -45.13    -47.60   -2.47  FeSO4:7H2O
  O2(g)           -82.16      0.96   83.12  O2
  pe_fix            6.76      6.76    0.00  e-
  pH_fix           -7.00     -7.00    0.00  H+
  Pyrite          -15.70    -34.17  -18.48  FeS2
  Pyrrhotite      -12.61    -15.85   -3.25  FeS
  Sulfur          -16.21    -18.32   -2.11  S

**For a gas, SI = log10(fugacity). Fugacity = pressure * phi / 1 atm.
  For ideal gases, phi = 1.

Reaction step 4.

Using solution 1.	PURE WATER
Using pure phase assemblage 1.	
Using reaction 1.	

Reaction 1.	

	  1.000e-12 moles of the following reaction have been added:

	                 Relative
	Reactant            moles

	Fe3S1                1.00000

	                 Relative
	Element             moles
	Fe                   3.00000
	S                    1.00000

-------------------------------Phase assemblage--------------------------------

                                                      Moles in assemblage
Phase               SI  log IAP  log K(T, P)   Initial       Final       Delta

Greigite        -49.94   -91.07    -41.13    0.000e+00           0   0.000e+00
Mackinawite     -13.46   -15.60     -2.14    0.000e+00           0   0.000e+00
Pyrite          -15.32   -33.80    -18.48    0.000e+00           0   0.000e+00
Pyrrhotite      -12.36   -15.60     -3.25    0.000e+00           0   0.000e+00

-----------------------------Solution composition------------------------------

	Elements           Molality       Moles

	Fe                1.200e-11   1.200e-11
	S                 4.000e-12   4.000e-12

----------------------------Description of solution----------------------------

                                       pH  =   6.999      Charge balance
                                       pe  =  -6.760      Adjusted to redox equilibrium
                        Activity of water  =   1.000
                 Ionic strength (mol/kgw)  =   1.003e-07
                       Mass of water (kg)  =   1.000e+00
                 Total alkalinity (eq/kg)  =   2.400e-11
                         Temperature (°C)  =  25.00
                  Electrical balance (eq)  =  -1.125e-18
 Percent error, 100*(Cat-|An|)/(Cat+|An|)  =  -0.00
                               Iterations  =   4
                                  Total H  = 1.110129e+02
                                  Total O  = 5.550622e+01

----------------------------Distribution of species----------------------------

                                               Log       Log       Log    mole V
   Species          Molality    Activity  Molality  Activity     Gamma    cm³/mol

   OH-             1.003e-07   1.002e-07    -6.999    -6.999    -0.000     (0)  
   H+              1.003e-07   1.002e-07    -6.999    -6.999    -0.000      0.00
   H2O             5.551e+01   1.000e+00     1.744    -0.000     0.000     18.07
Fe(2)         1.200e-11
   Fe+2            1.196e-11   1.194e-11   -10.922   -10.923    -0.001     (0)  
   FeOH+           3.770e-14   3.769e-14   -13.424   -13.424    -0.000     (0)  
   Fe(OH)2         3.201e-18   3.201e-18   -17.495   -17.495     0.000     (0)  
   Fe(OH)3-        1.187e-21   1.187e-21   -20.926   -20.926    -0.000     (0)  
   Fe(HS)2         4.703e-26   4.703e-26   -25.328   -25.328     0.000     (0)  
   Fe(HS)3-        1.077e-35   1.076e-35   -34.968   -34.968    -0.000     (0)  
   FeSO4           0.000e+00   0.000e+00   -45.099   -45.099     0.000     (0)  
Fe(3)         4.636e-23
   Fe(OH)2+        4.106e-23   4.104e-23   -22.387   -22.387    -0.000     (0)  
   Fe(OH)3         4.811e-24   4.811e-24   -23.318   -23.318     0.000     (0)  
   Fe(OH)4-        4.803e-25   4.801e-25   -24.319   -24.319    -0.000     (0)  
   FeOH+2          1.244e-26   1.242e-26   -25.905   -25.906    -0.001     (0)  
   Fe+3            1.935e-31   1.928e-31   -30.713   -30.715    -0.001     (0)  
   Fe2(OH)2+4      0.000e+00   0.000e+00   -50.379   -50.382    -0.003     (0)  
   FeSO4+          0.000e+00   0.000e+00   -63.221   -63.221    -0.000     (0)  
   Fe3(OH)4+5      0.000e+00   0.000e+00   -70.444   -70.448    -0.004     (0)  
   Fe(SO4)2-       0.000e+00   0.000e+00   -98.147   -98.148    -0.000     (0)  
H(0)          4.710e-04
   H2              2.355e-04   2.355e-04    -3.628    -3.628     0.000     (0)  
O(0)          0.000e+00
   O2              0.000e+00   0.000e+00   -85.124   -85.124     0.000     (0)  
S(-2)         4.000e-12
   HS-             2.103e-12   2.102e-12   -11.677   -11.677    -0.000     (0)  
   H2S             1.842e-12   1.842e-12   -11.735   -11.735     0.000     (0)  
   S5-2            5.337e-15   5.329e-15   -14.273   -14.273    -0.001     (0)  
   S4-2            3.114e-15   3.109e-15   -14.507   -14.507    -0.001     (0)  
   S6-2            2.762e-15   2.758e-15   -14.559   -14.559    -0.001     (0)  
   S-2             2.537e-18   2.533e-18   -17.596   -17.596    -0.001     (0)  
   S3-2            1.097e-18   1.096e-18   -17.960   -17.960    -0.001     (0)  
   S2-2            6.227e-20   6.218e-20   -19.206   -19.206    -0.001     (0)  
   Fe(HS)2         4.703e-26   4.703e-26   -25.328   -25.328     0.000     (0)  
   Fe(HS)3-        1.077e-35   1.076e-35   -34.968   -34.968    -0.000     (0)  
S(6)          3.752e-37
   SO4-2           3.752e-37   3.747e-37   -36.426   -36.426    -0.001     (0)  
   HSO4-           0.000e+00   0.000e+00   -41.438   -41.438    -0.000     (0)  
   FeSO4           0.000e+00   0.000e+00   -45.099   -45.099     0.000     (0)  
   FeSO4+          0.000e+00   0.000e+00   -63.221   -63.221    -0.000     (0)  
   Fe(SO4)2-       0.000e+00   0.000e+00   -98.147   -98.148    -0.000     (0)  

------------------------------Saturation indices-------------------------------

  Phase               SI** log IAP   log K(298 K,   1 atm)

  Fe2(SO4)3      -174.29   -170.71    3.58  Fe2(SO4)3
  Fe3(OH)8        -36.58    -16.36   20.22  Fe3(OH)8
  Ferrihydrite    -14.61     -9.72    4.89  Fe(OH)3
  FeS(ppt)        -11.69    -15.60   -3.92  FeS
  Goethite        -10.22     -9.72    0.50  FeOOH
  Greigite        -49.94    -91.07  -41.13  Fe3S4
  Hematite        -15.43    -19.44   -4.01  Fe2O3
  Jarosite-H     -117.90   -130.00  -12.10  (H3O)Fe3(SO4)2(OH)6
  Lepidocrocite   -11.09     -9.72    1.37  FeOOH
  Mackinawite     -13.46    -15.60   -2.14  FeS
  Maghemite       -25.82    -19.44    6.39  Fe2O3
  Magnetite       -20.10    -16.36    3.74  Fe3O4
  Melanterite     -44.88    -47.35   -2.47  FeSO4:7H2O
  O2(g)           -82.16      0.96   83.12  O2
  pe_fix            6.76      6.76    0.00  e-
  pH_fix           -7.00     -7.00    0.00  H+
  Pyrite          -15.32    -33.80  -18.48  FeS2
  Pyrrhotite      -12.36    -15.60   -3.25  FeS
  Sulfur          -16.09    -18.20   -2.11  S

**For a gas, SI = log10(fugacity). Fugacity = pressure * phi / 1 atm.
  For ideal gases, phi = 1.

Reaction step 5.

Using solution 1.	PURE WATER
Using pure phase assemblage 1.	
Using reaction 1.	

Reaction 1.	

	  1.000e-12 moles of the following reaction have been added:

	                 Relative
	Reactant            moles

	Fe3S1                1.00000

	                 Relative
	Element             moles
	Fe                   3.00000
	S                    1.00000

-------------------------------Phase assemblage--------------------------------

                                                      Moles in assemblage
Phase               SI  log IAP  log K(T, P)   Initial       Final       Delta

Greigite        -49.26   -90.39    -41.13    0.000e+00           0   0.000e+00
Mackinawite     -13.27   -15.41     -2.14    0.000e+00           0   0.000e+00
Pyrite          -15.03   -33.51    -18.48    0.000e+00           0   0.000e+00
Pyrrhotite      -12.16   -15.41     -3.25    0.000e+00           0   0.000e+00

-----------------------------Solution composition------------------------------

	Elements           Molality       Moles

	Fe                1.500e-11   1.500e-11
	S                 5.000e-12   5.000e-12

----------------------------Description of solution----------------------------

                                       pH  =   6.999      Charge balance
                                       pe  =  -6.760      Adjusted to redox equilibrium
                        Activity of water  =   1.000
                 Ionic strength (mol/kgw)  =   1.003e-07
                       Mass of water (kg)  =   1.000e+00
                 Total alkalinity (eq/kg)  =   3.000e-11
                         Temperature (°C)  =  25.00
                  Electrical balance (eq)  =   6.186e-19
 Percent error, 100*(Cat-|An|)/(Cat+|An|)  =   0.00
                               Iterations  =   3
                                  Total H  = 1.110129e+02
                                  Total O  = 5.550622e+01

----------------------------Distribution of species----------------------------

                                               Log       Log       Log    mole V
   Species          Molality    Activity  Molality  Activity     Gamma    cm³/mol

   OH-             1.003e-07   1.002e-07    -6.999    -6.999    -0.000     (0)  
   H+              1.003e-07   1.002e-07    -6.999    -6.999    -0.000      0.00
   H2O             5.551e+01   1.000e+00     1.744    -0.000     0.000     18.07
Fe(2)         1.500e-11
   Fe+2            1.495e-11   1.493e-11   -10.825   -10.826    -0.001     (0)  
   FeOH+           4.713e-14   4.711e-14   -13.327   -13.327    -0.000     (0)  
   Fe(OH)2         4.001e-18   4.001e-18   -17.398   -17.398     0.000     (0)  
   Fe(OH)3-        1.484e-21   1.483e-21   -20.829   -20.829    -0.000     (0)  
   Fe(HS)2         9.185e-26   9.185e-26   -25.037   -25.037     0.000     (0)  
   Fe(HS)3-        2.629e-35   2.628e-35   -34.580   -34.580    -0.000     (0)  
   FeSO4           0.000e+00   0.000e+00   -44.905   -44.905     0.000     (0)  
Fe(3)         5.795e-23
   Fe(OH)2+        5.132e-23   5.130e-23   -22.290   -22.290    -0.000     (0)  
   Fe(OH)3         6.014e-24   6.014e-24   -23.221   -23.221     0.000     (0)  
   Fe(OH)4-        6.004e-25   6.001e-25   -24.222   -24.222    -0.000     (0)  
   FeOH+2          1.555e-26   1.553e-26   -25.808   -25.809    -0.001     (0)  
   Fe+3            2.418e-31   2.410e-31   -30.617   -30.618    -0.001     (0)  
   Fe2(OH)2+4      0.000e+00   0.000e+00   -50.185   -50.188    -0.003     (0)  
   FeSO4+          0.000e+00   0.000e+00   -63.027   -63.027    -0.000     (0)  
   Fe3(OH)4+5      0.000e+00   0.000e+00   -70.154   -70.158    -0.004     (0)  
   Fe(SO4)2-       0.000e+00   0.000e+00   -97.857   -97.857    -0.000     (0)  
H(0)          4.710e-04
   H2              2.355e-04   2.355e-04    -3.628    -3.628     0.000     (0)  
O(0)          0.000e+00
   O2              0.000e+00   0.000e+00   -85.124   -85.124     0.000     (0)  
S(-2)         5.000e-12
   HS-             2.628e-12   2.627e-12   -11.580   -11.580    -0.000     (0)  
   H2S             2.302e-12   2.302e-12   -11.638   -11.638     0.000     (0)  
   S5-2            6.671e-15   6.661e-15   -14.176   -14.176    -0.001     (0)  
   S4-2            3.892e-15   3.887e-15   -14.410   -14.410    -0.001     (0)  
   S6-2            3.453e-15   3.448e-15   -14.462   -14.462    -0.001     (0)  
   S-2             3.171e-18   3.166e-18   -17.499   -17.499    -0.001     (0)  
   S3-2            1.372e-18   1.370e-18   -17.863   -17.863    -0.001     (0)  
   S2-2            7.784e-20   7.773e-20   -19.109   -19.109    -0.001     (0)  
   Fe(HS)2         9.185e-26   9.185e-26   -25.037   -25.037     0.000     (0)  
   Fe(HS)3-        2.629e-35   2.628e-35   -34.580   -34.580    -0.000     (0)  
S(6)          4.690e-37
   SO4-2           4.690e-37   4.683e-37   -36.329   -36.329    -0.001     (0)  
   HSO4-           0.000e+00   0.000e+00   -41.341   -41.342    -0.000     (0)  
   FeSO4           0.000e+00   0.000e+00   -44.905   -44.905     0.000     (0)  
   FeSO4+          0.000e+00   0.000e+00   -63.027   -63.027    -0.000     (0)  
   Fe(SO4)2-       0.000e+00   0.000e+00   -97.857   -97.857    -0.000     (0)  

------------------------------Saturation indices-------------------------------

  Phase               SI** log IAP   log K(298 K,   1 atm)

  Fe2(SO4)3      -173.80   -170.22    3.58  Fe2(SO4)3
  Fe3(OH)8        -36.29    -16.07   20.22  Fe3(OH)8
  Ferrihydrite    -14.51     -9.62    4.89  Fe(OH)3
  FeS(ppt)        -11.49    -15.41   -3.92  FeS
  Goethite        -10.12     -9.62    0.50  FeOOH
  Greigite        -49.26    -90.39  -41.13  Fe3S4
  Hematite        -15.23    -19.24   -4.01  Fe2O3
  Jarosite-H     -117.42   -129.52  -12.10  (H3O)Fe3(SO4)2(OH)6
  Lepidocrocite   -10.99     -9.62    1.37  FeOOH
  Mackinawite     -13.27    -15.41   -2.14  FeS
  Maghemite       -25.63    -19.24    6.39  Fe2O3
  Magnetite       -19.81    -16.07    3.74  Fe3O4
  Melanterite     -44.69    -47.16   -2.47  FeSO4:7H2O
  O2(g)           -82.16      0.96   83.12  O2
  pe_fix            6.76      6.76    0.00  e-
  pH_fix           -7.00     -7.00    0.00  H+
  Pyrite          -15.03    -33.51  -18.48  FeS2
  Pyrrhotite      -12.16    -15.41   -3.25  FeS
  Sulfur          -15.99    -18.10   -2.11  S

**For a gas, SI = log10(fugacity). Fugacity = pressure * phi / 1 atm.
  For ideal gases, phi = 1.

Reaction step 6.

Using solution 1.	PURE WATER
Using pure phase assemblage 1.	
Using reaction 1.	

Reaction 1.	

	  1.000e-12 moles of the following reaction have been added:

	                 Relative
	Reactant            moles

	Fe3S1                1.00000

	                 Relative
	Element             moles
	Fe                   3.00000
	S                    1.00000

-------------------------------Phase assemblage--------------------------------

                                                      Moles in assemblage
Phase               SI  log IAP  log K(T, P)   Initial       Final       Delta

Greigite        -48.71   -89.83    -41.13    0.000e+00           0   0.000e+00
Mackinawite     -13.11   -15.25     -2.14    0.000e+00           0   0.000e+00
Pyrite          -14.79   -33.27    -18.48    0.000e+00           0   0.000e+00
Pyrrhotite      -12.00   -15.25     -3.25    0.000e+00           0   0.000e+00

-----------------------------Solution composition------------------------------

	Elements           Molality       Moles

	Fe                1.800e-11   1.800e-11
	S                 6.000e-12   6.000e-12

----------------------------Description of solution----------------------------

                                       pH  =   6.999      Charge balance
                                       pe  =  -6.760      Adjusted to redox equilibrium
                        Activity of water  =   1.000
                 Ionic strength (mol/kgw)  =   1.003e-07
                       Mass of water (kg)  =   1.000e+00
                 Total alkalinity (eq/kg)  =   3.600e-11
                         Temperature (°C)  =  25.00
                  Electrical balance (eq)  =   1.014e-18
 Percent error, 100*(Cat-|An|)/(Cat+|An|)  =   0.00
                               Iterations  =   3
                                  Total H  = 1.110129e+02
                                  Total O  = 5.550622e+01

----------------------------Distribution of species----------------------------

                                               Log       Log       Log    mole V
   Species          Molality    Activity  Molality  Activity     Gamma    cm³/mol

   OH-             1.003e-07   1.002e-07    -6.999    -6.999    -0.000     (0)  
   H+              1.003e-07   1.002e-07    -6.999    -6.999    -0.000      0.00
   H2O             5.551e+01   1.000e+00     1.744    -0.000     0.000     18.07
Fe(2)         1.800e-11
   Fe+2            1.794e-11   1.792e-11   -10.746   -10.747    -0.001     (0)  
   FeOH+           5.656e-14   5.654e-14   -13.248   -13.248    -0.000     (0)  
   Fe(OH)2         4.802e-18   4.802e-18   -17.319   -17.319     0.000     (0)  
   Fe(OH)3-        1.781e-21   1.780e-21   -20.749   -20.750    -0.000     (0)  
   Fe(HS)2         1.587e-25   1.587e-25   -24.799   -24.799     0.000     (0)  
   Fe(HS)3-        5.451e-35   5.449e-35   -34.264   -34.264    -0.000     (0)  
   FeSO4           0.000e+00   0.000e+00   -44.747   -44.747     0.000     (0)  
Fe(3)         6.954e-23
   Fe(OH)2+        6.159e-23   6.156e-23   -22.211   -22.211    -0.000     (0)  
   Fe(OH)3         7.218e-24   7.218e-24   -23.142   -23.142     0.000     (0)  
   Fe(OH)4-        7.205e-25   7.202e-25   -24.142   -24.143    -0.000     (0)  
   FeOH+2          1.866e-26   1.863e-26   -25.729   -25.730    -0.001     (0)  
   Fe+3            2.902e-31   2.892e-31   -30.537   -30.539    -0.001     (0)  
   Fe2(OH)2+4      0.000e+00   0.000e+00   -50.027   -50.029    -0.003     (0)  
   FeSO4+          0.000e+00   0.000e+00   -62.869   -62.869    -0.000     (0)  
   Fe3(OH)4+5      0.000e+00   0.000e+00   -69.916   -69.920    -0.004     (0)  
   Fe(SO4)2-       0.000e+00   0.000e+00   -97.619   -97.619    -0.000     (0)  
H(0)          4.710e-04
   H2              2.355e-04   2.355e-04    -3.628    -3.628     0.000     (0)  
O(0)          0.000e+00
   O2              0.000e+00   0.000e+00   -85.124   -85.124     0.000     (0)  
S(-2)         6.000e-12
   HS-             3.154e-12   3.153e-12   -11.501   -11.501    -0.000     (0)  
   H2S             2.762e-12   2.762e-12   -11.559   -11.559     0.000     (0)  
   S5-2            8.006e-15   7.994e-15   -14.097   -14.097    -0.001     (0)  
   S4-2            4.671e-15   4.664e-15   -14.331   -14.331    -0.001     (0)  
   S6-2            4.144e-15   4.138e-15   -14.383   -14.383    -0.001     (0)  
   S-2             3.805e-18   3.800e-18   -17.420   -17.420    -0.001     (0)  
   S3-2            1.646e-18   1.643e-18   -17.784   -17.784    -0.001     (0)  
   S2-2            9.341e-20   9.327e-20   -19.030   -19.030    -0.001     (0)  
   Fe(HS)2         1.587e-25   1.587e-25   -24.799   -24.799     0.000     (0)  
   Fe(HS)3-        5.451e-35   5.449e-35   -34.264   -34.264    -0.000     (0)  
S(6)          5.629e-37
   SO4-2           5.629e-37   5.620e-37   -36.250   -36.250    -0.001     (0)  
   HSO4-           0.000e+00   0.000e+00   -41.262   -41.262    -0.000     (0)  
   FeSO4           0.000e+00   0.000e+00   -44.747   -44.747     0.000     (0)  
   FeSO4+          0.000e+00   0.000e+00   -62.869   -62.869    -0.000     (0)  
   Fe(SO4)2-       0.000e+00   0.000e+00   -97.619   -97.619    -0.000     (0)  

------------------------------Saturation indices-------------------------------

  Phase               SI** log IAP   log K(298 K,   1 atm)

  Fe2(SO4)3      -173.41   -169.83    3.58  Fe2(SO4)3
  Fe3(OH)8        -36.05    -15.83   20.22  Fe3(OH)8
  Ferrihydrite    -14.43     -9.54    4.89  Fe(OH)3
  FeS(ppt)        -11.33    -15.25   -3.92  FeS
  Goethite        -10.04     -9.54    0.50  FeOOH
  Greigite        -48.71    -89.83  -41.13  Fe3S4
  Hematite        -15.08    -19.08   -4.01  Fe2O3
  Jarosite-H     -117.02   -129.12  -12.10  (H3O)Fe3(SO4)2(OH)6
  Lepidocrocite   -10.91     -9.54    1.37  FeOOH
  Mackinawite     -13.11    -15.25   -2.14  FeS
  Maghemite       -25.47    -19.08    6.39  Fe2O3
  Magnetite       -19.57    -15.83    3.74  Fe3O4
  Melanterite     -44.53    -47.00   -2.47  FeSO4:7H2O
  O2(g)           -82.16      0.96   83.12  O2
  pe_fix            6.76      6.76    0.00  e-
  pH_fix           -7.00     -7.00    0.00  H+
  Pyrite          -14.79    -33.27  -18.48  FeS2
  Pyrrhotite      -12.00    -15.25   -3.25  FeS
  Sulfur          -15.91    -18.02   -2.11  S

**For a gas, SI = log10(fugacity). Fugacity = pressure * phi / 1 atm.
  For ideal gases, phi = 1.

Reaction step 7.

Using solution 1.	PURE WATER
Using pure phase assemblage 1.	
Using reaction 1.	

Reaction 1.	

	  1.000e-12 moles of the following reaction have been added:

	                 Relative
	Reactant            moles

	Fe3S1                1.00000

	                 Relative
	Element             moles
	Fe                   3.00000
	S                    1.00000

-------------------------------Phase assemblage--------------------------------

                                                      Moles in assemblage
Phase               SI  log IAP  log K(T, P)   Initial       Final       Delta

Greigite        -48.24   -89.36    -41.13    0.000e+00           0   0.000e+00
Mackinawite     -12.98   -15.12     -2.14    0.000e+00           0   0.000e+00
Pyrite          -14.59   -33.07    -18.48    0.000e+00           0   0.000e+00
Pyrrhotite      -11.87   -15.12     -3.25    0.000e+00           0   0.000e+00

-----------------------------Solution composition------------------------------

	Elements           Molality       Moles

	Fe                2.100e-11   2.100e-11
	S                 7.000e-12   7.000e-12

----------------------------Description of solution----------------------------

                                       pH  =   6.999      Charge balance
                                       pe  =  -6.760      Adjusted to redox equilibrium
                        Activity of water  =   1.000
                 Ionic strength (mol/kgw)  =   1.003e-07
                       Mass of water (kg)  =   1.000e+00
                 Total alkalinity (eq/kg)  =   4.200e-11
                         Temperature (°C)  =  25.00
                  Electrical balance (eq)  =   1.130e-18
 Percent error, 100*(Cat-|An|)/(Cat+|An|)  =   0.00
                               Iterations  =   3
                                  Total H  = 1.110129e+02
                                  Total O  = 5.550622e+01

----------------------------Distribution of species----------------------------

                                               Log       Log       Log    mole V
   Species          Molality    Activity  Molality  Activity     Gamma    cm³/mol

   OH-             1.003e-07   1.002e-07    -6.999    -6.999    -0.000     (0)  
   H+              1.002e-07   1.002e-07    -6.999    -6.999    -0.000      0.00
   H2O             5.551e+01   1.000e+00     1.744    -0.000     0.000     18.07
Fe(2)         2.100e-11
   Fe+2            2.093e-11   2.090e-11   -10.679   -10.680    -0.001     (0)  
   FeOH+           6.599e-14   6.596e-14   -13.181   -13.181    -0.000     (0)  
   Fe(OH)2         5.602e-18   5.602e-18   -17.252   -17.252     0.000     (0)  
   Fe(OH)3-        2.078e-21   2.077e-21   -20.682   -20.683    -0.000     (0)  
   Fe(HS)2         2.521e-25   2.521e-25   -24.599   -24.599     0.000     (0)  
   Fe(HS)3-        1.010e-34   1.010e-34   -33.996   -33.996    -0.000     (0)  
   FeSO4           0.000e+00   0.000e+00   -44.613   -44.613     0.000     (0)  
Fe(3)         8.114e-23
   Fe(OH)2+        7.185e-23   7.183e-23   -22.144   -22.144    -0.000     (0)  
   Fe(OH)3         8.421e-24   8.421e-24   -23.075   -23.075     0.000     (0)  
   Fe(OH)4-        8.406e-25   8.403e-25   -24.075   -24.076    -0.000     (0)  
   FeOH+2          2.177e-26   2.174e-26   -25.662   -25.663    -0.001     (0)  
   Fe+3            3.385e-31   3.374e-31   -30.470   -30.472    -0.001     (0)  
   Fe2(OH)2+4      0.000e+00   0.000e+00   -49.893   -49.896    -0.003     (0)  
   FeSO4+          0.000e+00   0.000e+00   -62.735   -62.735    -0.000     (0)  
   Fe3(OH)4+5      0.000e+00   0.000e+00   -69.715   -69.719    -0.004     (0)  
   Fe(SO4)2-       0.000e+00   0.000e+00   -97.418   -97.418    -0.000     (0)  
H(0)          4.710e-04
   H2              2.355e-04   2.355e-04    -3.628    -3.628     0.000     (0)  
O(0)          0.000e+00
   O2              0.000e+00   0.000e+00   -85.124   -85.124     0.000     (0)  
S(-2)         7.000e-12
   HS-             3.680e-12   3.678e-12   -11.434   -11.434    -0.000     (0)  
   H2S             3.223e-12   3.223e-12   -11.492   -11.492     0.000     (0)  
   S5-2            9.341e-15   9.327e-15   -14.030   -14.030    -0.001     (0)  
   S4-2            5.450e-15   5.442e-15   -14.264   -14.264    -0.001     (0)  
   S6-2            4.835e-15   4.828e-15   -14.316   -14.316    -0.001     (0)  
   S-2             4.440e-18   4.433e-18   -17.353   -17.353    -0.001     (0)  
   S3-2            1.920e-18   1.917e-18   -17.717   -17.717    -0.001     (0)  
   S2-2            1.090e-19   1.088e-19   -18.963   -18.963    -0.001     (0)  
   Fe(HS)2         2.521e-25   2.521e-25   -24.599   -24.599     0.000     (0)  
   Fe(HS)3-        1.010e-34   1.010e-34   -33.996   -33.996    -0.000     (0)  
S(6)          6.567e-37
   SO4-2           6.567e-37   6.557e-37   -36.183   -36.183    -0.001     (0)  
   HSO4-           0.000e+00   0.000e+00   -41.195   -41.195    -0.000     (0)  
   FeSO4           0.000e+00   0.000e+00   -44.613   -44.613     0.000     (0)  
   FeSO4+          0.000e+00   0.000e+00   -62.735   -62.735    -0.000     (0)  
   Fe(SO4)2-       0.000e+00   0.000e+00   -97.418   -97.418    -0.000     (0)  

------------------------------Saturation indices-------------------------------

  Phase               SI** log IAP   log K(298 K,   1 atm)

  Fe2(SO4)3      -173.07   -169.49    3.58  Fe2(SO4)3
  Fe3(OH)8        -35.85    -15.63   20.22  Fe3(OH)8
  Ferrihydrite    -14.37     -9.47    4.89  Fe(OH)3
  FeS(ppt)        -11.20    -15.12   -3.92  FeS
  Goethite         -9.97     -9.47    0.50  FeOOH
  Greigite        -48.24    -89.36  -41.13  Fe3S4
  Hematite        -14.94    -18.95   -4.01  Fe2O3
  Jarosite-H     -116.69   -128.79  -12.10  (H3O)Fe3(SO4)2(OH)6
  Lepidocrocite   -10.85     -9.47    1.37  FeOOH
  Mackinawite     -12.98    -15.12   -2.14  FeS
  Maghemite       -25.34    -18.95    6.39  Fe2O3
  Magnetite       -19.37    -15.63    3.74  Fe3O4
  Melanterite     -44.39    -46.86   -2.47  FeSO4:7H2O
  O2(g)           -82.16      0.96   83.12  O2
  pe_fix            6.76      6.76    0.00  e-
  pH_fix           -7.00     -7.00    0.00  H+
  Pyrite          -14.59    -33.07  -18.48  FeS2
  Pyrrhotite      -11.87    -15.12   -3.25  FeS
  Sulfur          -15.85    -17.96   -2.11  S

**For a gas, SI = log10(fugacity). Fugacity = pressure * phi / 1 atm.
  For ideal gases, phi = 1.

Reaction step 8.

Using solution 1.	PURE WATER
Using pure phase assemblage 1.	
Using reaction 1.	

Reaction 1.	

	  1.000e-12 moles of the following reaction have been added:

	                 Relative
	Reactant            moles

	Fe3S1                1.00000

	                 Relative
	Element             moles
	Fe                   3.00000
	S                    1.00000

-------------------------------Phase assemblage--------------------------------

                                                      Moles in assemblage
Phase               SI  log IAP  log K(T, P)   Initial       Final       Delta

Greigite        -47.83   -88.96    -41.13    0.000e+00           0   0.000e+00
Mackinawite     -12.86   -15.00     -2.14    0.000e+00           0   0.000e+00
Pyrite          -14.42   -32.90    -18.48    0.000e+00           0   0.000e+00
Pyrrhotite      -11.75   -15.00     -3.25    0.000e+00           0   0.000e+00

-----------------------------Solution composition------------------------------

	Elements           Molality       Moles

	Fe                2.400e-11   2.400e-11
	S                 8.000e-12   8.000e-12

----------------------------Description of solution----------------------------

                                       pH  =   6.999      Charge balance
                                       pe  =  -6.760      Adjusted to redox equilibrium
                        Activity of water  =   1.000
                 Ionic strength (mol/kgw)  =   1.003e-07
                       Mass of water (kg)  =   1.000e+00
                 Total alkalinity (eq/kg)  =   4.800e-11
                         Temperature (°C)  =  25.00
                  Electrical balance (eq)  =   1.171e-18
 Percent error, 100*(Cat-|An|)/(Cat+|An|)  =   0.00
                               Iterations  =   3
                                  Total H  = 1.110129e+02
                                  Total O  = 5.550622e+01

----------------------------Distribution of species----------------------------

                                               Log       Log       Log    mole V
   Species          Molality    Activity  Molality  Activity     Gamma    cm³/mol

   OH-             1.003e-07   1.003e-07    -6.999    -6.999    -0.000     (0)  
   H+              1.002e-07   1.002e-07    -6.999    -6.999    -0.000      0.00
   H2O             5.551e+01   1.000e+00     1.744    -0.000     0.000     18.07
Fe(2)         2.400e-11
   Fe+2            2.392e-11   2.389e-11   -10.621   -10.622    -0.001     (0)  
   FeOH+           7.541e-14   7.539e-14   -13.123   -13.123    -0.000     (0)  
   Fe(OH)2         6.403e-18   6.403e-18   -17.194   -17.194     0.000     (0)  
   Fe(OH)3-        2.375e-21   2.374e-21   -20.624   -20.625    -0.000     (0)  
   Fe(HS)2         3.763e-25   3.763e-25   -24.425   -24.425     0.000     (0)  
   Fe(HS)3-        1.723e-34   1.722e-34   -33.764   -33.764    -0.000     (0)  
   FeSO4           0.000e+00   0.000e+00   -44.497   -44.497     0.000     (0)  
Fe(3)         9.273e-23
   Fe(OH)2+        8.212e-23   8.209e-23   -22.086   -22.086    -0.000     (0)  
   Fe(OH)3         9.625e-24   9.625e-24   -23.017   -23.017     0.000     (0)  
   Fe(OH)4-        9.608e-25   9.605e-25   -24.017   -24.018    -0.000     (0)  
   FeOH+2          2.488e-26   2.484e-26   -25.604   -25.605    -0.001     (0)  
   Fe+3            3.869e-31   3.856e-31   -30.412   -30.414    -0.001     (0)  
   Fe2(OH)2+4      0.000e+00   0.000e+00   -49.777   -49.780    -0.003     (0)  
   FeSO4+          0.000e+00   0.000e+00   -62.619   -62.619    -0.000     (0)  
   Fe3(OH)4+5      0.000e+00   0.000e+00   -69.541   -69.545    -0.004     (0)  
   Fe(SO4)2-       0.000e+00   0.000e+00   -97.244   -97.244    -0.000     (0)  
H(0)          4.710e-04
   H2              2.355e-04   2.355e-04    -3.628    -3.628     0.000     (0)  
O(0)          0.000e+00
   O2              0.000e+00   0.000e+00   -85.124   -85.124     0.000     (0)  
S(-2)         8.000e-12
   HS-             4.205e-12   4.204e-12   -11.376   -11.376    -0.000     (0)  
   H2S             3.683e-12   3.683e-12   -11.434   -11.434     0.000     (0)  
   S5-2            1.068e-14   1.066e-14   -13.972   -13.972    -0.001     (0)  
   S4-2            6.228e-15   6.219e-15   -14.206   -14.206    -0.001     (0)  
   S6-2            5.526e-15   5.517e-15   -14.258   -14.258    -0.001     (0)  
   S-2             5.074e-18   5.067e-18   -17.295   -17.295    -0.001     (0)  
   S3-2            2.195e-18   2.191e-18   -17.659   -17.659    -0.001     (0)  
   S2-2            1.246e-19   1.244e-19   -18.905   -18.905    -0.001     (0)  
   Fe(HS)2         3.763e-25   3.763e-25   -24.425   -24.425     0.000     (0)  
   Fe(HS)3-        1.723e-34   1.722e-34   -33.764   -33.764    -0.000     (0)  
S(6)          7.506e-37
   SO4-2           7.506e-37   7.494e-37   -36.125   -36.125    -0.001     (0)  
   HSO4-           0.000e+00   0.000e+00   -41.137   -41.137    -0.000     (0)  
   FeSO4           0.000e+00   0.000e+00   -44.497   -44.497     0.000     (0)  
   FeSO4+          0.000e+00   0.000e+00   -62.619   -62.619    -0.000     (0)  
   Fe(SO4)2-       0.000e+00   0.000e+00   -97.244   -97.244    -0.000     (0)  

------------------------------Saturation indices-------------------------------

  Phase               SI** log IAP   log K(298 K,   1 atm)

  Fe2(SO4)3      -172.78   -169.20    3.58  Fe2(SO4)3
  Fe3(OH)8        -35.68    -15.46   20.22  Fe3(OH)8
  Ferrihydrite    -14.31     -9.42    4.89  Fe(OH)3
  FeS(ppt)        -11.08    -15.00   -3.92  FeS
  Goethite         -9.92     -9.42    0.50  FeOOH
  Greigite        -47.83    -88.96  -41.13  Fe3S4
  Hematite        -14.83    -18.83   -4.01  Fe2O3
  Jarosite-H     -116.40   -128.50  -12.10  (H3O)Fe3(SO4)2(OH)6
  Lepidocrocite   -10.79     -9.42    1.37  FeOOH
  Mackinawite     -12.86    -15.00   -2.14  FeS
  Maghemite       -25.22    -18.83    6.39  Fe2O3
  Magnetite       -19.19    -15.46    3.74  Fe3O4
  Melanterite     -44.28    -46.75   -2.47  FeSO4:7H2O
  O2(g)           -82.16      0.96   83.12  O2
  pe_fix            6.76      6.76    0.00  e-
  pH_fix           -7.00     -7.00    0.00  H+
  Pyrite          -14.42    -32.90  -18.48  FeS2
  Pyrrhotite      -11.75    -15.00   -3.25  FeS
  Sulfur          -15.79    -17.90   -2.11  S

**For a gas, SI = log10(fugacity). Fugacity = pressure * phi / 1 atm.
  For ideal gases, phi = 1.

Reaction step 9.

Using solution 1.	PURE WATER
Using pure phase assemblage 1.	
Using reaction 1.	

Reaction 1.	

	  1.000e-12 moles of the following reaction have been added:

	                 Relative
	Reactant            moles

	Fe3S1                1.00000

	                 Relative
	Element             moles
	Fe                   3.00000
	S                    1.00000

-------------------------------Phase assemblage--------------------------------

                                                      Moles in assemblage
Phase               SI  log IAP  log K(T, P)   Initial       Final       Delta

Greigite        -47.47   -88.60    -41.13    0.000e+00           0   0.000e+00
Mackinawite     -12.76   -14.90     -2.14    0.000e+00           0   0.000e+00
Pyrite          -14.26   -32.74    -18.48    0.000e+00           0   0.000e+00
Pyrrhotite      -11.65   -14.90     -3.25    0.000e+00           0   0.000e+00

-----------------------------Solution composition------------------------------

	Elements           Molality       Moles

	Fe                2.700e-11   2.700e-11
	S                 9.000e-12   9.000e-12

----------------------------Description of solution----------------------------

                                       pH  =   6.999      Charge balance
                                       pe  =  -6.760      Adjusted to redox equilibrium
                        Activity of water  =   1.000
                 Ionic strength (mol/kgw)  =   1.003e-07
                       Mass of water (kg)  =   1.000e+00
                 Total alkalinity (eq/kg)  =   5.400e-11
                         Temperature (°C)  =  25.00
                  Electrical balance (eq)  =   1.187e-18
 Percent error, 100*(Cat-|An|)/(Cat+|An|)  =   0.00
                               Iterations  =   3
                                  Total H  = 1.110129e+02
                                  Total O  = 5.550622e+01

----------------------------Distribution of species----------------------------

                                               Log       Log       Log    mole V
   Species          Molality    Activity  Molality  Activity     Gamma    cm³/mol

   OH-             1.003e-07   1.003e-07    -6.999    -6.999    -0.000     (0)  
   H+              1.002e-07   1.002e-07    -6.999    -6.999    -0.000      0.00
   H2O             5.551e+01   1.000e+00     1.744    -0.000     0.000     18.07
Fe(2)         2.700e-11
   Fe+2            2.692e-11   2.688e-11   -10.570   -10.571    -0.001     (0)  
   FeOH+           8.484e-14   8.481e-14   -13.071   -13.072    -0.000     (0)  
   Fe(OH)2         7.204e-18   7.204e-18   -17.142   -17.142     0.000     (0)  
   Fe(OH)3-        2.672e-21   2.671e-21   -20.573   -20.573    -0.000     (0)  
   Fe(HS)2         5.357e-25   5.357e-25   -24.271   -24.271     0.000     (0)  
   Fe(HS)3-        2.760e-34   2.759e-34   -33.559   -33.559    -0.000     (0)  
   FeSO4           0.000e+00   0.000e+00   -44.395   -44.395     0.000     (0)  
Fe(3)         1.043e-22
   Fe(OH)2+        9.239e-23   9.235e-23   -22.034   -22.035    -0.000     (0)  
   Fe(OH)3         1.083e-23   1.083e-23   -22.965   -22.965     0.000     (0)  
   Fe(OH)4-        1.081e-24   1.081e-24   -23.966   -23.966    -0.000     (0)  
   FeOH+2          2.799e-26   2.795e-26   -25.553   -25.554    -0.001     (0)  
   Fe+3            4.352e-31   4.338e-31   -30.361   -30.363    -0.001     (0)  
   Fe2(OH)2+4      0.000e+00   0.000e+00   -49.675   -49.677    -0.003     (0)  
   FeSO4+          0.000e+00   0.000e+00   -62.517   -62.517    -0.000     (0)  
   Fe3(OH)4+5      0.000e+00   0.000e+00   -69.388   -69.392    -0.004     (0)  
   Fe(SO4)2-       0.000e+00   0.000e+00   -97.091   -97.091    -0.000     (0)  
H(0)          4.710e-04
   H2              2.355e-04   2.355e-04    -3.628    -3.628     0.000     (0)  
O(0)          0.000e+00
   O2              0.000e+00   0.000e+00   -85.124   -85.124     0.000     (0)  
S(-2)         9.000e-12
   HS-             4.731e-12   4.729e-12   -11.325   -11.325    -0.000     (0)  
   H2S             4.144e-12   4.144e-12   -11.383   -11.383     0.000     (0)  
   S5-2            1.201e-14   1.199e-14   -13.920   -13.921    -0.001     (0)  
   S4-2            7.007e-15   6.997e-15   -14.154   -14.155    -0.001     (0)  
   S6-2            6.217e-15   6.207e-15   -14.206   -14.207    -0.001     (0)  
   S-2             5.709e-18   5.700e-18   -17.243   -17.244    -0.001     (0)  
   S3-2            2.469e-18   2.466e-18   -17.607   -17.608    -0.001     (0)  
   S2-2            1.401e-19   1.399e-19   -18.853   -18.854    -0.001     (0)  
   Fe(HS)2         5.357e-25   5.357e-25   -24.271   -24.271     0.000     (0)  
   Fe(HS)3-        2.760e-34   2.759e-34   -33.559   -33.559    -0.000     (0)  
S(6)          8.444e-37
   SO4-2           8.444e-37   8.432e-37   -36.073   -36.074    -0.001     (0)  
   HSO4-           0.000e+00   0.000e+00   -41.086   -41.086    -0.000     (0)  
   FeSO4           0.000e+00   0.000e+00   -44.395   -44.395     0.000     (0)  
   FeSO4+          0.000e+00   0.000e+00   -62.517   -62.517    -0.000     (0)  
   Fe(SO4)2-       0.000e+00   0.000e+00   -97.091   -97.091    -0.000     (0)  

------------------------------Saturation indices-------------------------------

  Phase               SI** log IAP   log K(298 K,   1 atm)

  Fe2(SO4)3      -172.53   -168.95    3.58  Fe2(SO4)3
  Fe3(OH)8        -35.53    -15.30   20.22  Fe3(OH)8
  Ferrihydrite    -14.26     -9.37    4.89  Fe(OH)3
  FeS(ppt)        -10.98    -14.90   -3.92  FeS
  Goethite         -9.87     -9.37    0.50  FeOOH
  Greigite        -47.47    -88.60  -41.13  Fe3S4
  Hematite        -14.72    -18.73   -4.01  Fe2O3
  Jarosite-H     -116.14   -128.24  -12.10  (H3O)Fe3(SO4)2(OH)6
  Lepidocrocite   -10.74     -9.37    1.37  FeOOH
  Mackinawite     -12.76    -14.90   -2.14  FeS
  Maghemite       -25.12    -18.73    6.39  Fe2O3
  Magnetite       -19.04    -15.30    3.74  Fe3O4
  Melanterite     -44.17    -46.64   -2.47  FeSO4:7H2O
  O2(g)           -82.16      0.96   83.12  O2
  pe_fix            6.76      6.76    0.00  e-
  pH_fix           -7.00     -7.00    0.00  H+
  Pyrite          -14.26    -32.74  -18.48  FeS2
  Pyrrhotite      -11.65    -14.90   -3.25  FeS
  Sulfur          -15.74    -17.85   -2.11  S

**For a gas, SI = log10(fugacity). Fugacity = pressure * phi / 1 atm.
  For ideal gases, phi = 1.

Reaction step 10.

Using solution 1.	PURE WATER
Using pure phase assemblage 1.	
Using reaction 1.	

Reaction 1.	

	  1.000e-12 moles of the following reaction have been added:

	                 Relative
	Reactant            moles

	Fe3S1                1.00000

	                 Relative
	Element             moles
	Fe                   3.00000
	S                    1.00000

-------------------------------Phase assemblage--------------------------------

                                                      Moles in assemblage
Phase               SI  log IAP  log K(T, P)   Initial       Final       Delta

Greigite        -47.15   -88.28    -41.13    0.000e+00           0   0.000e+00
Mackinawite     -12.67   -14.81     -2.14    0.000e+00           0   0.000e+00
Pyrite          -14.13   -32.61    -18.48    0.000e+00           0   0.000e+00
Pyrrhotite      -11.56   -14.81     -3.25    0.000e+00           0   0.000e+00

-----------------------------Solution composition------------------------------

	Elements           Molality       Moles

	Fe                3.000e-11   3.000e-11
	S                 1.000e-11   1.000e-11

----------------------------Description of solution----------------------------

                                       pH  =   6.999      Charge balance
                                       pe  =  -6.760      Adjusted to redox equilibrium
                        Activity of water  =   1.000
                 Ionic strength (mol/kgw)  =   1.003e-07
                       Mass of water (kg)  =   1.000e+00
                 Total alkalinity (eq/kg)  =   6.000e-11
                         Temperature (°C)  =  25.00
                  Electrical balance (eq)  =   1.195e-18
 Percent error, 100*(Cat-|An|)/(Cat+|An|)  =   0.00
                               Iterations  =   3
                                  Total H  = 1.110129e+02
                                  Total O  = 5.550622e+01

----------------------------Distribution of species----------------------------

                                               Log       Log       Log    mole V
   Species          Molality    Activity  Molality  Activity     Gamma    cm³/mol

   OH-             1.003e-07   1.003e-07    -6.999    -6.999    -0.000     (0)  
   H+              1.002e-07   1.002e-07    -6.999    -6.999    -0.000      0.00
   H2O             5.551e+01   1.000e+00     1.744    -0.000     0.000     18.07
Fe(2)         3.000e-11
   Fe+2            2.991e-11   2.986e-11   -10.524   -10.525    -0.001     (0)  
   FeOH+           9.427e-14   9.424e-14   -13.026   -13.026    -0.000     (0)  
   Fe(OH)2         8.005e-18   8.005e-18   -17.097   -17.097     0.000     (0)  
   Fe(OH)3-        2.969e-21   2.968e-21   -20.527   -20.528    -0.000     (0)  
   Fe(HS)2         7.349e-25   7.349e-25   -24.134   -24.134     0.000     (0)  
   Fe(HS)3-        4.207e-34   4.205e-34   -33.376   -33.376    -0.000     (0)  
   FeSO4           0.000e+00   0.000e+00   -44.303   -44.303     0.000     (0)  
Fe(3)         1.159e-22
   Fe(OH)2+        1.027e-22   1.026e-22   -21.989   -21.989    -0.000     (0)  
   Fe(OH)3         1.203e-23   1.203e-23   -22.920   -22.920     0.000     (0)  
   Fe(OH)4-        1.201e-24   1.201e-24   -23.920   -23.921    -0.000     (0)  
   FeOH+2          3.110e-26   3.105e-26   -25.507   -25.508    -0.001     (0)  
   Fe+3            4.836e-31   4.819e-31   -30.316   -30.317    -0.001     (0)  
   Fe2(OH)2+4      0.000e+00   0.000e+00   -49.583   -49.586    -0.003     (0)  
   FeSO4+          0.000e+00   0.000e+00   -62.425   -62.425    -0.000     (0)  
   Fe3(OH)4+5      0.000e+00   0.000e+00   -69.251   -69.255    -0.004     (0)  
   Fe(SO4)2-       0.000e+00   0.000e+00   -96.953   -96.954    -0.000     (0)  
H(0)          4.710e-04
   H2              2.355e-04   2.355e-04    -3.628    -3.628     0.000     (0)  
O(0)          0.000e+00
   O2              0.000e+00   0.000e+00   -85.124   -85.124     0.000     (0)  
S(-2)         1.000e-11
   HS-             5.257e-12   5.255e-12   -11.279   -11.279    -0.000     (0)  
   H2S             4.604e-12   4.604e-12   -11.337   -11.337     0.000     (0)  
   S5-2            1.335e-14   1.333e-14   -13.875   -13.875    -0.001     (0)  
   S4-2            7.786e-15   7.775e-15   -14.109   -14.109    -0.001     (0)  
   S6-2            6.908e-15   6.897e-15   -14.161   -14.161    -0.001     (0)  
   S-2             6.343e-18   6.334e-18   -17.198   -17.198    -0.001     (0)  
   S3-2            2.744e-18   2.740e-18   -17.562   -17.562    -0.001     (0)  
   S2-2            1.557e-19   1.555e-19   -18.808   -18.808    -0.001     (0)  
   Fe(HS)2         7.349e-25   7.349e-25   -24.134   -24.134     0.000     (0)  
   Fe(HS)3-        4.207e-34   4.205e-34   -33.376   -33.376    -0.000     (0)  
S(6)          9.383e-37
   SO4-2           9.383e-37   9.369e-37   -36.028   -36.028    -0.001     (0)  
   HSO4-           0.000e+00   0.000e+00   -41.040   -41.040    -0.000     (0)  
   FeSO4           0.000e+00   0.000e+00   -44.303   -44.303     0.000     (0)  
   FeSO4+          0.000e+00   0.000e+00   -62.425   -62.425    -0.000     (0)  
   Fe(SO4)2-       0.000e+00   0.000e+00   -96.953   -96.954    -0.000     (0)  

------------------------------Saturation indices-------------------------------

  Phase               SI** log IAP   log K(298 K,   1 atm)

  Fe2(SO4)3      -172.30   -168.72    3.58  Fe2(SO4)3
  Fe3(OH)8        -35.39    -15.17   20.22  Fe3(OH)8
  Ferrihydrite    -14.21     -9.32    4.89  Fe(OH)3
  FeS(ppt)        -10.89    -14.81   -3.92  FeS
  Goethite         -9.82     -9.32    0.50  FeOOH
  Greigite        -47.15    -88.28  -41.13  Fe3S4
  Hematite        -14.63    -18.64   -4.01  Fe2O3
  Jarosite-H     -115.91   -128.01  -12.10  (H3O)Fe3(SO4)2(OH)6
  Lepidocrocite   -10.69     -9.32    1.37  FeOOH
  Mackinawite     -12.67    -14.81   -2.14  FeS
  Maghemite       -25.03    -18.64    6.39  Fe2O3
  Magnetite       -18.90    -15.17    3.74  Fe3O4
  Melanterite     -44.08    -46.55   -2.47  FeSO4:7H2O
  O2(g)           -82.16      0.96   83.12  O2
  pe_fix            6.76      6.76    0.00  e-
  pH_fix           -7.00     -7.00    0.00  H+
  Pyrite          -14.13    -32.61  -18.48  FeS2
  Pyrrhotite      -11.56    -14.81   -3.25  FeS
  Sulfur          -15.69    -17.80   -2.11  S

**For a gas, SI = log10(fugacity). Fugacity = pressure * phi / 1 atm.
  For ideal gases, phi = 1.

Reaction step 11.

Using solution 1.	PURE WATER
Using pure phase assemblage 1.	
Using reaction 1.	

Reaction 1.	

	  1.000e-11 moles of the following reaction have been added:

	                 Relative
	Reactant            moles

	Fe3S1                1.00000

	                 Relative
	Element             moles
	Fe                   3.00000
	S                    1.00000

-------------------------------Phase assemblage--------------------------------

                                                      Moles in assemblage
Phase               SI  log IAP  log K(T, P)   Initial       Final       Delta

Greigite        -45.04   -86.17    -41.13    0.000e+00           0   0.000e+00
Mackinawite     -12.07   -14.20     -2.14    0.000e+00           0   0.000e+00
Pyrite          -13.22   -31.70    -18.48    0.000e+00           0   0.000e+00
Pyrrhotite      -10.96   -14.20     -3.25    0.000e+00           0   0.000e+00

-----------------------------Solution composition------------------------------

	Elements           Molality       Moles

	Fe                6.000e-11   6.000e-11
	S                 2.000e-11   2.000e-11

----------------------------Description of solution----------------------------

                                       pH  =   6.999      Charge balance
                                       pe  =  -6.760      Adjusted to redox equilibrium
                        Activity of water  =   1.000
                 Ionic strength (mol/kgw)  =   1.004e-07
                       Mass of water (kg)  =   1.000e+00
                 Total alkalinity (eq/kg)  =   1.200e-10
                         Temperature (°C)  =  25.00
                  Electrical balance (eq)  =   1.194e-18
 Percent error, 100*(Cat-|An|)/(Cat+|An|)  =   0.00
                               Iterations  =   5
                                  Total H  = 1.110129e+02
                                  Total O  = 5.550622e+01

----------------------------Distribution of species----------------------------

                                               Log       Log       Log    mole V
   Species          Molality    Activity  Molality  Activity     Gamma    cm³/mol

   OH-             1.003e-07   1.003e-07    -6.999    -6.999    -0.000     (0)  
   H+              1.002e-07   1.002e-07    -6.999    -6.999    -0.000      0.00
   H2O             5.551e+01   1.000e+00     1.744    -0.000     0.000     18.07
Fe(2)         6.000e-11
   Fe+2            5.981e-11   5.972e-11   -10.223   -10.224    -0.001     (0)  
   FeOH+           1.886e-13   1.885e-13   -12.724   -12.725    -0.000     (0)  
   Fe(OH)2         1.602e-17   1.602e-17   -16.795   -16.795     0.000     (0)  
   Fe(OH)3-        5.943e-21   5.941e-21   -20.226   -20.226    -0.000     (0)  
   Fe(HS)2         5.881e-24   5.881e-24   -23.231   -23.231     0.000     (0)  
   Fe(HS)3-        6.733e-33   6.731e-33   -32.172   -32.172    -0.000     (0)  
   FeSO4           0.000e+00   0.000e+00   -43.701   -43.701     0.000     (0)  
Fe(3)         2.319e-22
   Fe(OH)2+        2.054e-22   2.053e-22   -21.687   -21.688    -0.000     (0)  
   Fe(OH)3         2.408e-23   2.408e-23   -22.618   -22.618     0.000     (0)  
   Fe(OH)4-        2.404e-24   2.403e-24   -23.619   -23.619    -0.000     (0)  
   FeOH+2          6.220e-26   6.211e-26   -25.206   -25.207    -0.001     (0)  
   Fe+3            9.668e-31   9.636e-31   -30.015   -30.016    -0.001     (0)  
   Fe2(OH)2+4      0.000e+00   0.000e+00   -48.981   -48.984    -0.003     (0)  
   FeSO4+          0.000e+00   0.000e+00   -61.823   -61.823    -0.000     (0)  
   Fe3(OH)4+5      0.000e+00   0.000e+00   -68.347   -68.351    -0.004     (0)  
   Fe(SO4)2-       0.000e+00   0.000e+00   -96.050   -96.050    -0.000     (0)  
H(0)          4.710e-04
   H2              2.355e-04   2.355e-04    -3.628    -3.628     0.000     (0)  
O(0)          0.000e+00
   O2              0.000e+00   0.000e+00   -85.124   -85.124     0.000     (0)  
S(-2)         2.000e-11
   HS-             1.051e-11   1.051e-11   -10.978   -10.978    -0.000     (0)  
   H2S             9.206e-12   9.206e-12   -11.036   -11.036     0.000     (0)  
   S5-2            2.670e-14   2.666e-14   -13.573   -13.574    -0.001     (0)  
   S4-2            1.558e-14   1.556e-14   -13.807   -13.808    -0.001     (0)  
   S6-2            1.382e-14   1.380e-14   -13.859   -13.860    -0.001     (0)  
   S-2             1.269e-17   1.267e-17   -16.896   -16.897    -0.001     (0)  
   S3-2            5.489e-18   5.481e-18   -17.260   -17.261    -0.001     (0)  
   S2-2            3.115e-19   3.111e-19   -18.506   -18.507    -0.001     (0)  
   Fe(HS)2         5.881e-24   5.881e-24   -23.231   -23.231     0.000     (0)  
   Fe(HS)3-        6.733e-33   6.731e-33   -32.172   -32.172    -0.000     (0)  
S(6)          1.877e-36
   SO4-2           1.877e-36   1.874e-36   -35.726   -35.727    -0.001     (0)  
   HSO4-           0.000e+00   0.000e+00   -40.739   -40.739    -0.000     (0)  
   FeSO4           0.000e+00   0.000e+00   -43.701   -43.701     0.000     (0)  
   FeSO4+          0.000e+00   0.000e+00   -61.823   -61.823    -0.000     (0)  
   Fe(SO4)2-       0.000e+00   0.000e+00   -96.050   -96.050    -0.000     (0)  

------------------------------Saturation indices-------------------------------

  Phase               SI** log IAP   log K(298 K,   1 atm)

  Fe2(SO4)3      -170.79   -167.21    3.58  Fe2(SO4)3
  Fe3(OH)8        -34.48    -14.26   20.22  Fe3(OH)8
  Ferrihydrite    -13.91     -9.02    4.89  Fe(OH)3
  FeS(ppt)        -10.29    -14.20   -3.92  FeS
  Goethite         -9.52     -9.02    0.50  FeOOH
  Greigite        -45.04    -86.17  -41.13  Fe3S4
  Hematite        -14.03    -18.04   -4.01  Fe2O3
  Jarosite-H     -114.41   -126.51  -12.10  (H3O)Fe3(SO4)2(OH)6
  Lepidocrocite   -10.39     -9.02    1.37  FeOOH
  Mackinawite     -12.07    -14.20   -2.14  FeS
  Maghemite       -24.42    -18.04    6.39  Fe2O3
  Magnetite       -18.00    -14.26    3.74  Fe3O4
  Melanterite     -43.48    -45.95   -2.47  FeSO4:7H2O
  O2(g)           -82.16      0.96   83.12  O2
  pe_fix            6.76      6.76    0.00  e-
  pH_fix           -7.00     -7.00    0.00  H+
  Pyrite          -13.22    -31.70  -18.48  FeS2
  Pyrrhotite      -10.96    -14.20   -3.25  FeS
  Sulfur          -15.39    -17.50   -2.11  S

**For a gas, SI = log10(fugacity). Fugacity = pressure * phi / 1 atm.
  For ideal gases, phi = 1.

Reaction step 12.

Using solution 1.	PURE WATER
Using pure phase assemblage 1.	
Using reaction 1.	

Reaction 1.	

	  1.000e-11 moles of the following reaction have been added:

	                 Relative
	Reactant            moles

	Fe3S1                1.00000

	                 Relative
	Element             moles
	Fe                   3.00000
	S                    1.00000

-------------------------------Phase assemblage--------------------------------

                                                      Moles in assemblage
Phase               SI  log IAP  log K(T, P)   Initial       Final       Delta

Greigite        -43.81   -84.94    -41.13    0.000e+00           0   0.000e+00
Mackinawite     -11.71   -13.85     -2.14    0.000e+00           0   0.000e+00
Pyrite          -12.70   -31.17    -18.48    0.000e+00           0   0.000e+00
Pyrrhotite      -10.61   -13.85     -3.25    0.000e+00           0   0.000e+00

-----------------------------Solution composition------------------------------

	Elements           Molality       Moles

	Fe                9.000e-11   9.000e-11
	S                 3.000e-11   3.000e-11

----------------------------Description of solution----------------------------

                                       pH  =   6.999      Charge balance
                                       pe  =  -6.760      Adjusted to redox equilibrium
                        Activity of water  =   1.000
                 Ionic strength (mol/kgw)  =   1.005e-07
                       Mass of water (kg)  =   1.000e+00
[...]
  For ideal gases, phi = 1.

Reaction step 108.

Using solution 1.	PURE WATER
Using pure phase assemblage 1.	
Using reaction 1.	

Reaction 1.	

	  1.000e-02 moles of the following reaction have been added:

	                 Relative
	Reactant            moles

	Fe3S1                1.00000

	                 Relative
	Element             moles
	Fe                   3.00000
	S                    1.00000

-------------------------------Phase assemblage--------------------------------

                                                      Moles in assemblage
Phase               SI  log IAP  log K(T, P)   Initial       Final       Delta

Greigite        -20.91   -55.82    -34.90    0.000e+00           0   0.000e+00
Mackinawite      -0.97    -3.64     -2.66    0.000e+00           0   0.000e+00
Pyrite           -8.61   -25.43    -16.81    0.000e+00           0   0.000e+00
Pyrrhotite       -0.00    -3.64     -3.64    8.111e-02   9.111e-02   1.000e-02

-----------------------------Solution composition------------------------------

	Elements           Molality       Moles

	Fe                1.834e-01   1.822e-01
	S                 7.656e-08   7.606e-08

----------------------------Description of solution----------------------------

                                       pH  =   9.478      Charge balance
                                       pe  = -10.830      Adjusted to redox equilibrium
                        Activity of water  =   0.994
                 Ionic strength (mol/kgw)  =   3.374e-02
                       Mass of water (kg)  =   9.934e-01
                 Total alkalinity (eq/kg)  =   3.669e-01
                         Temperature (°C)  = 100.00
                  Electrical balance (eq)  =  -3.009e-11
 Percent error, 100*(Cat-|An|)/(Cat+|An|)  =  -0.00
                               Iterations  =   6
                                  Total H  = 1.110364e+02
                                  Total O  = 5.550622e+01

----------------------------Distribution of species----------------------------

                                               Log       Log       Log    mole V
   Species          Molality    Activity  Molality  Activity     Gamma    cm³/mol

   OH-             3.418e-03   2.776e-03    -2.466    -2.557    -0.090     (0)  
   H+              3.910e-10   3.324e-10    -9.408    -9.478    -0.070      0.00
   H2O             5.551e+01   9.935e-01     1.744    -0.003     0.000     18.80
Fe(2)         1.834e-01
   Fe(OH)2         1.213e-01   1.223e-01    -0.916    -0.913     0.003     (0)  
   FeOH+           3.177e-02   2.619e-02    -1.498    -1.582    -0.084     (0)  
   Fe(OH)3-        2.967e-02   2.446e-02    -1.528    -1.612    -0.084     (0)  
   Fe+2            6.581e-04   3.149e-04    -3.182    -3.502    -0.320     (0)  
   Fe(HS)2         1.664e-14   1.677e-14   -13.779   -13.775     0.003     (0)  
   Fe(HS)3-        5.455e-22   4.464e-22   -21.263   -21.350    -0.087     (0)  
   FeSO4           2.892e-37   2.915e-37   -36.539   -36.535     0.003     (0)  
Fe(3)         3.203e-10
   Fe(OH)4-        3.114e-10   2.577e-10    -9.507    -9.589    -0.082     (0)  
   Fe(OH)3         8.556e-12   8.622e-12   -11.068   -11.064     0.003     (0)  
   Fe(OH)2+        2.968e-13   2.456e-13   -12.528   -12.610    -0.082     (0)  
   FeOH+2          1.829e-17   8.448e-18   -16.738   -17.073    -0.335     (0)  
   Fe+3            5.532e-26   1.286e-26   -25.257   -25.891    -0.634     (0)  
   Fe2(OH)2+4      3.992e-33   1.616e-34   -32.399   -33.792    -1.393     (0)  
   Fe3(OH)4+5      0.000e+00   0.000e+00   -41.787   -43.964    -2.176     (0)  
   FeSO4+          0.000e+00   0.000e+00   -57.070   -57.154    -0.084     (0)  
   Fe(SO4)2-       0.000e+00   0.000e+00   -91.225   -91.312    -0.087     (0)  
H(0)          3.910e-01
   H2              1.955e-01   1.970e-01    -0.709    -0.705     0.003     (0)  
O(0)          0.000e+00
   O2              0.000e+00   0.000e+00   -71.639   -71.635     0.003     (0)  
S(-2)         7.656e-08
   S5-2            9.767e-09   4.381e-09    -8.010    -8.358    -0.348     (0)  
   S4-2            6.527e-09   2.928e-09    -8.185    -8.533    -0.348     (0)  
   HS-             3.010e-10   2.445e-10    -9.521    -9.612    -0.090     (0)  
   S6-2            2.156e-10   9.671e-11    -9.666   -10.015    -0.348     (0)  
   S-2             1.166e-11   5.384e-12   -10.933   -11.269    -0.335     (0)  
   S3-2            2.916e-12   1.308e-12   -11.535   -11.883    -0.348     (0)  
   H2S             2.675e-13   2.695e-13   -12.573   -12.569     0.003     (0)  
   S2-2            2.324e-13   1.042e-13   -12.634   -12.982    -0.348     (0)  
   Fe(HS)2         1.664e-14   1.677e-14   -13.779   -13.775     0.003     (0)  
   Fe(HS)3-        5.455e-22   4.464e-22   -21.263   -21.350    -0.087     (0)  
S(6)          4.218e-36
   SO4-2           3.929e-36   1.740e-36   -35.406   -35.759    -0.354     (0)  
   FeSO4           2.892e-37   2.915e-37   -36.539   -36.535     0.003     (0)  
   HSO4-           0.000e+00   0.000e+00   -42.165   -42.251    -0.086     (0)  
   FeSO4+          0.000e+00   0.000e+00   -57.070   -57.154    -0.084     (0)  
   Fe(SO4)2-       0.000e+00   0.000e+00   -91.225   -91.312    -0.087     (0)  

------------------------------Saturation indices-------------------------------

  Phase               SI** log IAP   log K(373 K,   1 atm)

  Fe2(SO4)3      -153.93   -159.06   -5.13  Fe2(SO4)3
  Fe3(OH)8          0.30     20.52   20.22  Fe3(OH)8
  Ferrihydrite     -2.36      2.54    4.89  Fe(OH)3
  FeS(ppt)          0.28     -3.64   -3.92  FeS
  Goethite          4.17      2.54   -1.63  FeOOH
  Greigite        -20.91    -55.82  -34.90  Fe3S4
  Hematite         13.63      5.08   -8.55  Fe2O3
  Jarosite-H      -81.59   -101.82  -20.22  (H3O)Fe3(SO4)2(OH)6
  Lepidocrocite     1.17      2.54    1.37  FeOOH
  Mackinawite      -0.97     -3.64   -2.66  FeS
  Maghemite        -1.31      5.08    6.39  Fe2O3
  Magnetite        24.23     20.53   -3.70  Fe3O4
  Melanterite     -37.23    -39.28   -2.05  FeSO4:7H2O
  O2(g)           -68.82     -5.41   63.40  O2
  pe_fix           10.83     10.83    0.00  e-
  pH_fix           -9.48     -9.48    0.00  H+
  Pyrite           -8.61    -25.43  -16.81  FeS2
  Pyrrhotite       -0.00     -3.64   -3.64  FeS
  Sulfur          -19.06    -21.79   -2.73  S

**For a gas, SI = log10(fugacity). Fugacity = pressure * phi / 1 atm.
  For ideal gases, phi = 1.

Reaction step 109.

Using solution 1.	PURE WATER
Using pure phase assemblage 1.	
Using reaction 1.	

Reaction 1.	

	  1.000e-02 moles of the following reaction have been added:

	                 Relative
	Reactant            moles

	Fe3S1                1.00000

	                 Relative
	Element             moles
	Fe                   3.00000
	S                    1.00000

-------------------------------Phase assemblage--------------------------------

                                                      Moles in assemblage
Phase               SI  log IAP  log K(T, P)   Initial       Final       Delta

Greigite        -21.00   -55.91    -34.90    0.000e+00           0   0.000e+00
Mackinawite      -0.97    -3.64     -2.66    0.000e+00           0   0.000e+00
Pyrite           -8.70   -25.52    -16.81    0.000e+00           0   0.000e+00
Pyrrhotite        0.00    -3.64     -3.64    9.111e-02   1.011e-01   1.000e-02

-----------------------------Solution composition------------------------------

	Elements           Molality       Moles

	Fe                2.037e-01   2.022e-01
	S                 7.215e-08   7.163e-08

----------------------------Description of solution----------------------------

                                       pH  =   9.481      Charge balance
                                       pe  = -10.854      Adjusted to redox equilibrium
                        Activity of water  =   0.993
                 Ionic strength (mol/kgw)  =   3.753e-02
                       Mass of water (kg)  =   9.927e-01
                 Total alkalinity (eq/kg)  =   4.074e-01
                         Temperature (°C)  = 100.00
                  Electrical balance (eq)  =  -3.282e-11
 Percent error, 100*(Cat-|An|)/(Cat+|An|)  =  -0.00
                               Iterations  =   5
                                  Total H  = 1.110364e+02
                                  Total O  = 5.550622e+01

----------------------------Distribution of species----------------------------

                                               Log       Log       Log    mole V
   Species          Molality    Activity  Molality  Activity     Gamma    cm³/mol

   OH-             3.468e-03   2.791e-03    -2.460    -2.554    -0.094     (0)  
   H+              3.908e-10   3.305e-10    -9.408    -9.481    -0.073      0.00
   H2O             5.551e+01   9.928e-01     1.744    -0.003     0.000     18.80
Fe(2)         2.037e-01
   Fe(OH)2         1.343e-01   1.355e-01    -0.872    -0.868     0.004     (0)  
   FeOH+           3.530e-02   2.887e-02    -1.452    -1.540    -0.087     (0)  
   Fe(OH)3-        3.332e-02   2.725e-02    -1.477    -1.565    -0.087     (0)  
   Fe+2            7.427e-04   3.453e-04    -3.129    -3.462    -0.333     (0)  
   Fe(HS)2         1.498e-14   1.511e-14   -13.824   -13.821     0.004     (0)  
   Fe(HS)3-        4.493e-22   3.647e-22   -21.347   -21.438    -0.091     (0)  
   FeSO4           1.935e-37   1.951e-37   -36.713   -36.710     0.004     (0)  
Fe(3)         3.417e-10
   Fe(OH)4-        3.324e-10   2.730e-10    -9.478    -9.564    -0.086     (0)  
   Fe(OH)3         9.007e-12   9.085e-12   -11.045   -11.042     0.004     (0)  
   Fe(OH)2+        3.135e-13   2.574e-13   -12.504   -12.589    -0.086     (0)  
   FeOH+2          1.968e-17   8.807e-18   -16.706   -17.055    -0.349     (0)  
   Fe+3            6.030e-26   1.334e-26   -25.220   -25.875    -0.655     (0)  
   Fe2(OH)2+4      4.949e-33   1.756e-34   -32.305   -33.755    -1.450     (0)  
   Fe3(OH)4+5      0.000e+00   0.000e+00   -41.641   -43.907    -2.266     (0)  
   FeSO4+          0.000e+00   0.000e+00   -57.265   -57.353    -0.087     (0)  
   Fe(SO4)2-       0.000e+00   0.000e+00   -91.634   -91.725    -0.091     (0)  
H(0)          4.316e-01
   H2              2.158e-01   2.177e-01    -0.666    -0.662     0.004     (0)  
O(0)          0.000e+00
   O2              0.000e+00   0.000e+00   -71.726   -71.722     0.004     (0)  
S(-2)         7.215e-08
   S5-2            9.206e-09   3.996e-09    -8.036    -8.398    -0.363     (0)  
   S4-2            6.152e-09   2.670e-09    -8.211    -8.573    -0.363     (0)  
   HS-             2.754e-10   2.216e-10    -9.560    -9.654    -0.094     (0)  
   S6-2            2.032e-10   8.820e-11    -9.692   -10.055    -0.363     (0)  
   S-2             1.097e-11   4.910e-12   -10.960   -11.309    -0.349     (0)  
   S3-2            2.749e-12   1.193e-12   -11.561   -11.923    -0.363     (0)  
   H2S             2.408e-13   2.429e-13   -12.618   -12.615     0.004     (0)  
   S2-2            2.190e-13   9.505e-14   -12.660   -13.022    -0.363     (0)  
   Fe(HS)2         1.498e-14   1.511e-14   -13.824   -13.821     0.004     (0)  
   Fe(HS)3-        4.493e-22   3.647e-22   -21.347   -21.438    -0.091     (0)  
S(6)          2.678e-36
   SO4-2           2.485e-36   1.062e-36   -35.605   -35.974    -0.369     (0)  
   FeSO4           1.935e-37   1.951e-37   -36.713   -36.710     0.004     (0)  
   HSO4-           0.000e+00   0.000e+00   -42.378   -42.468    -0.090     (0)  
   FeSO4+          0.000e+00   0.000e+00   -57.265   -57.353    -0.087     (0)  
   Fe(SO4)2-       0.000e+00   0.000e+00   -91.634   -91.725    -0.091     (0)  

------------------------------Saturation indices-------------------------------

  Phase               SI** log IAP   log K(373 K,   1 atm)

  Fe2(SO4)3      -154.54   -159.67   -5.13  Fe2(SO4)3
  Fe3(OH)8          0.39     20.61   20.22  Fe3(OH)8
  Ferrihydrite     -2.33      2.56    4.89  Fe(OH)3
  FeS(ppt)          0.28     -3.64   -3.92  FeS
  Goethite          4.19      2.56   -1.63  FeOOH
  Greigite        -21.00    -55.91  -34.90  Fe3S4
  Hematite         13.68      5.13   -8.55  Fe2O3
  Jarosite-H      -81.96   -102.19  -20.22  (H3O)Fe3(SO4)2(OH)6
  Lepidocrocite     1.19      2.56    1.37  FeOOH
  Mackinawite      -0.97     -3.64   -2.66  FeS
  Maghemite        -1.26      5.13    6.39  Fe2O3
  Magnetite        24.32     20.62   -3.70  Fe3O4
  Melanterite     -37.41    -39.46   -2.05  FeSO4:7H2O
  O2(g)           -68.90     -5.50   63.40  O2
  pe_fix           10.85     10.85    0.00  e-
  pH_fix           -9.48     -9.48    0.00  H+
  Pyrite           -8.70    -25.52  -16.81  FeS2
  Pyrrhotite        0.00     -3.64   -3.64  FeS
  Sulfur          -19.15    -21.88   -2.73  S

**For a gas, SI = log10(fugacity). Fugacity = pressure * phi / 1 atm.
  For ideal gases, phi = 1.

Reaction step 110.

Using solution 1.	PURE WATER
Using pure phase assemblage 1.	
Using reaction 1.	

Reaction 1.	

	  1.000e-02 moles of the following reaction have been added:

	                 Relative
	Reactant            moles

	Fe3S1                1.00000

	                 Relative
	Element             moles
	Fe                   3.00000
	S                    1.00000

-------------------------------Phase assemblage--------------------------------

                                                      Moles in assemblage
Phase               SI  log IAP  log K(T, P)   Initial       Final       Delta

Greigite        -21.08   -55.99    -34.90    0.000e+00           0   0.000e+00
Mackinawite      -0.97    -3.64     -2.66    0.000e+00           0   0.000e+00
Pyrite           -8.78   -25.60    -16.81    0.000e+00           0   0.000e+00
Pyrrhotite        0.00    -3.64     -3.64    1.011e-01   1.111e-01   1.000e-02

-----------------------------Solution composition------------------------------

	Elements           Molality       Moles

	Fe                2.240e-01   2.222e-01
	S                 6.839e-08   6.784e-08

----------------------------Description of solution----------------------------

                                       pH  =   9.483      Charge balance
                                       pe  = -10.876      Adjusted to redox equilibrium
                        Activity of water  =   0.992
                 Ionic strength (mol/kgw)  =   4.135e-02
                       Mass of water (kg)  =   9.920e-01
                 Total alkalinity (eq/kg)  =   4.480e-01
                         Temperature (°C)  = 100.00
                  Electrical balance (eq)  =  -3.405e-11
 Percent error, 100*(Cat-|An|)/(Cat+|An|)  =  -0.00
                               Iterations  =   5
                                  Total H  = 1.110364e+02
                                  Total O  = 5.550622e+01

----------------------------Distribution of species----------------------------

                                               Log       Log       Log    mole V
   Species          Molality    Activity  Molality  Activity     Gamma    cm³/mol

   OH-             3.514e-03   2.804e-03    -2.454    -2.552    -0.098     (0)  
   H+              3.908e-10   3.288e-10    -9.408    -9.483    -0.075      0.00
   H2O             5.551e+01   9.921e-01     1.744    -0.003     0.000     18.80
Fe(2)         2.240e-01
   Fe(OH)2         1.473e-01   1.487e-01    -0.832    -0.828     0.004     (0)  
   FeOH+           3.886e-02   3.155e-02    -1.411    -1.501    -0.091     (0)  
   Fe(OH)3-        3.700e-02   3.004e-02    -1.432    -1.522    -0.091     (0)  
   Fe+2            8.299e-04   3.756e-04    -3.081    -3.425    -0.344     (0)  
   Fe(HS)2         1.362e-14   1.375e-14   -13.866   -13.862     0.004     (0)  
   Fe(HS)3-        3.767e-22   3.034e-22   -21.424   -21.518    -0.094     (0)  
   FeSO4           1.340e-37   1.353e-37   -36.873   -36.869     0.004     (0)  
Fe(3)         3.622e-10
   Fe(OH)4-        3.525e-10   2.874e-10    -9.453    -9.542    -0.089     (0)  
   Fe(OH)3         9.432e-12   9.522e-12   -11.025   -11.021     0.004     (0)  
   Fe(OH)2+        3.294e-13   2.686e-13   -12.482   -12.571    -0.089     (0)  
   FeOH+2          2.106e-17   9.149e-18   -16.677   -17.039    -0.362     (0)  
   Fe+3            6.530e-26   1.379e-26   -25.185   -25.860    -0.675     (0)  
   Fe2(OH)2+4      6.038e-33   1.895e-34   -32.219   -33.722    -1.503     (0)  
   Fe3(OH)4+5      0.000e+00   0.000e+00   -41.507   -43.856    -2.349     (0)  
   FeSO4+          0.000e+00   0.000e+00   -57.443   -57.534    -0.091     (0)  
   Fe(SO4)2-       0.000e+00   0.000e+00   -92.007   -92.101    -0.094     (0)  
H(0)          4.722e-01
   H2              2.361e-01   2.384e-01    -0.627    -0.623     0.004     (0)  
O(0)          0.000e+00
   O2              0.000e+00   0.000e+00   -71.806   -71.802     0.004     (0)  
S(-2)         6.839e-08
   S5-2            8.727e-09   3.673e-09    -8.059    -8.435    -0.376     (0)  
   S4-2            5.831e-09   2.454e-09    -8.234    -8.610    -0.376     (0)  
   HS-             2.540e-10   2.027e-10    -9.595    -9.693    -0.098     (0)  
   S6-2            1.926e-10   8.108e-11    -9.715   -10.091    -0.376     (0)  
   S-2             1.039e-11   4.514e-12   -10.983   -11.345    -0.362     (0)  
   S3-2            2.606e-12   1.097e-12   -11.584   -11.960    -0.376     (0)  
   H2S             2.189e-13   2.210e-13   -12.660   -12.656     0.004     (0)  
   S2-2            2.076e-13   8.738e-14   -12.683   -13.059    -0.376     (0)  
   Fe(HS)2         1.362e-14   1.375e-14   -13.866   -13.862     0.004     (0)  
   Fe(HS)3-        3.767e-22   3.034e-22   -21.424   -21.518    -0.094     (0)  
S(6)          1.771e-36
   SO4-2           1.637e-36   6.772e-37   -35.786   -36.169    -0.383     (0)  
   FeSO4           1.340e-37   1.353e-37   -36.873   -36.869     0.004     (0)  
   HSO4-           0.000e+00   0.000e+00   -42.573   -42.666    -0.093     (0)  
   FeSO4+          0.000e+00   0.000e+00   -57.443   -57.534    -0.091     (0)  
   Fe(SO4)2-       0.000e+00   0.000e+00   -92.007   -92.101    -0.094     (0)  

------------------------------Saturation indices-------------------------------

  Phase               SI** log IAP   log K(373 K,   1 atm)

  Fe2(SO4)3      -155.10   -160.23   -5.13  Fe2(SO4)3
  Fe3(OH)8          0.47     20.69   20.22  Fe3(OH)8
  Ferrihydrite     -2.31      2.58    4.89  Fe(OH)3
  FeS(ppt)          0.28     -3.64   -3.92  FeS
  Goethite          4.22      2.58   -1.63  FeOOH
  Greigite        -21.08    -55.99  -34.90  Fe3S4
  Hematite         13.72      5.17   -8.55  Fe2O3
  Jarosite-H      -82.30   -102.53  -20.22  (H3O)Fe3(SO4)2(OH)6
  Lepidocrocite     1.21      2.58    1.37  FeOOH
  Mackinawite      -0.97     -3.64   -2.66  FeS
  Maghemite        -1.22      5.17    6.39  Fe2O3
  Magnetite        24.40     20.71   -3.70  Fe3O4
  Melanterite     -37.57    -39.62   -2.05  FeSO4:7H2O
  O2(g)           -68.98     -5.58   63.40  O2
  pe_fix           10.88     10.88    0.00  e-
  pH_fix           -9.48     -9.48    0.00  H+
  Pyrite           -8.78    -25.60  -16.81  FeS2
  Pyrrhotite        0.00     -3.64   -3.64  FeS
  Sulfur          -19.23    -21.96   -2.73  S

**For a gas, SI = log10(fugacity). Fugacity = pressure * phi / 1 atm.
  For ideal gases, phi = 1.

------------------
End of simulation.
------------------

------------------------------------
Reading input data for simulation 5.
------------------------------------

-------------------------------
End of Run after 0.463 Seconds.
-------------------------------

